
---------- Begin Simulation Statistics ----------
simSeconds                                   0.052165                       # Number of seconds simulated (Second)
simTicks                                  52164901000                       # Number of ticks simulated (Tick)
finalTick                                12191351747250                       # Number of ticks from beginning of simulation (restored from checkpoints and never reset) (Tick)
simFreq                                  1000000000000                       # The number of ticks per simulated second ((Tick/Second))
hostSeconds                                    566.34                       # Real time elapsed on the host (Second)
hostTickRate                                 92109071                       # The number of ticks simulated per host second (ticks/s) ((Tick/Second))
hostMemory                                    3423176                       # Number of bytes of host memory used (Byte)
simInsts                                     50942385                       # Number of instructions simulated (Count)
simOps                                       84871851                       # Number of ops (including micro ops) simulated (Count)
hostInstRate                                    89950                       # Simulator instruction rate (inst/s) ((Count/Second))
hostOpRate                                     149861                       # Simulator op (including micro ops) rate (op/s) ((Count/Second))
board.cache_hierarchy.dptw_caches.blockedCycles::no_mshrs            0                       # number of cycles access was blocked (Cycle)
board.cache_hierarchy.dptw_caches.blockedCycles::no_wbuffers            0                       # number of cycles access was blocked (Cycle)
board.cache_hierarchy.dptw_caches.blockedCycles::no_targets            0                       # number of cycles access was blocked (Cycle)
board.cache_hierarchy.dptw_caches.blockedCauses::no_mshrs            0                       # number of times access was blocked (Count)
board.cache_hierarchy.dptw_caches.blockedCauses::no_wbuffers            0                       # number of times access was blocked (Count)
board.cache_hierarchy.dptw_caches.blockedCauses::no_targets            0                       # number of times access was blocked (Count)
board.cache_hierarchy.dptw_caches.avgBlocked::no_mshrs          nan                       # average number of cycles each access was blocked ((Cycle/Count))
board.cache_hierarchy.dptw_caches.avgBlocked::no_wbuffers          nan                       # average number of cycles each access was blocked ((Cycle/Count))
board.cache_hierarchy.dptw_caches.avgBlocked::no_targets          nan                       # average number of cycles each access was blocked ((Cycle/Count))
board.cache_hierarchy.dptw_caches.replacements            0                       # number of replacements (Count)
board.cache_hierarchy.dptw_caches.power_state.pwrStateResidencyTicks::UNDEFINED  52164901000                       # Cumulative time (in ticks) in various power states (Tick)
board.cache_hierarchy.dptw_caches.tags.tagsInUse            0                       # Average ticks per tags in use ((Tick/Count))
board.cache_hierarchy.dptw_caches.tags.totalRefs            0                       # Total number of references to valid blocks. (Count)
board.cache_hierarchy.dptw_caches.tags.sampledRefs            0                       # Sample count of references to valid blocks. (Count)
board.cache_hierarchy.dptw_caches.tags.avgRefs          nan                       # Average number of references to valid blocks. ((Count/Count))
board.cache_hierarchy.dptw_caches.tags.warmupTick            0                       # The tick when the warmup percentage was hit. (Tick)
board.cache_hierarchy.dptw_caches.tags.tagAccesses            0                       # Number of tag accesses (Count)
board.cache_hierarchy.dptw_caches.tags.dataAccesses            0                       # Number of data accesses (Count)
board.cache_hierarchy.dptw_caches.tags.power_state.pwrStateResidencyTicks::UNDEFINED  52164901000                       # Cumulative time (in ticks) in various power states (Tick)
board.cache_hierarchy.iptw_caches.blockedCycles::no_mshrs            0                       # number of cycles access was blocked (Cycle)
board.cache_hierarchy.iptw_caches.blockedCycles::no_wbuffers            0                       # number of cycles access was blocked (Cycle)
board.cache_hierarchy.iptw_caches.blockedCycles::no_targets            0                       # number of cycles access was blocked (Cycle)
board.cache_hierarchy.iptw_caches.blockedCauses::no_mshrs            0                       # number of times access was blocked (Count)
board.cache_hierarchy.iptw_caches.blockedCauses::no_wbuffers            0                       # number of times access was blocked (Count)
board.cache_hierarchy.iptw_caches.blockedCauses::no_targets            0                       # number of times access was blocked (Count)
board.cache_hierarchy.iptw_caches.avgBlocked::no_mshrs          nan                       # average number of cycles each access was blocked ((Cycle/Count))
board.cache_hierarchy.iptw_caches.avgBlocked::no_wbuffers          nan                       # average number of cycles each access was blocked ((Cycle/Count))
board.cache_hierarchy.iptw_caches.avgBlocked::no_targets          nan                       # average number of cycles each access was blocked ((Cycle/Count))
board.cache_hierarchy.iptw_caches.replacements            0                       # number of replacements (Count)
board.cache_hierarchy.iptw_caches.power_state.pwrStateResidencyTicks::UNDEFINED  52164901000                       # Cumulative time (in ticks) in various power states (Tick)
board.cache_hierarchy.iptw_caches.tags.tagsInUse            0                       # Average ticks per tags in use ((Tick/Count))
board.cache_hierarchy.iptw_caches.tags.totalRefs            0                       # Total number of references to valid blocks. (Count)
board.cache_hierarchy.iptw_caches.tags.sampledRefs            0                       # Sample count of references to valid blocks. (Count)
board.cache_hierarchy.iptw_caches.tags.avgRefs          nan                       # Average number of references to valid blocks. ((Count/Count))
board.cache_hierarchy.iptw_caches.tags.warmupTick            0                       # The tick when the warmup percentage was hit. (Tick)
board.cache_hierarchy.iptw_caches.tags.tagAccesses            0                       # Number of tag accesses (Count)
board.cache_hierarchy.iptw_caches.tags.dataAccesses            0                       # Number of data accesses (Count)
board.cache_hierarchy.iptw_caches.tags.power_state.pwrStateResidencyTicks::UNDEFINED  52164901000                       # Cumulative time (in ticks) in various power states (Tick)
board.cache_hierarchy.l1dcaches.demandHits::processor.switch.core.data     21720954                       # number of demand (read+write) hits (Count)
board.cache_hierarchy.l1dcaches.demandHits::total     21720954                       # number of demand (read+write) hits (Count)
board.cache_hierarchy.l1dcaches.overallHits::processor.switch.core.data     21720954                       # number of overall hits (Count)
board.cache_hierarchy.l1dcaches.overallHits::total     21720954                       # number of overall hits (Count)
board.cache_hierarchy.l1dcaches.demandMisses::processor.switch.core.data      2236263                       # number of demand (read+write) misses (Count)
board.cache_hierarchy.l1dcaches.demandMisses::total      2236263                       # number of demand (read+write) misses (Count)
board.cache_hierarchy.l1dcaches.overallMisses::processor.switch.core.data      2236263                       # number of overall misses (Count)
board.cache_hierarchy.l1dcaches.overallMisses::total      2236263                       # number of overall misses (Count)
board.cache_hierarchy.l1dcaches.demandMissLatency::processor.switch.core.data  27298519500                       # number of demand (read+write) miss ticks (Tick)
board.cache_hierarchy.l1dcaches.demandMissLatency::total  27298519500                       # number of demand (read+write) miss ticks (Tick)
board.cache_hierarchy.l1dcaches.overallMissLatency::processor.switch.core.data  27298519500                       # number of overall miss ticks (Tick)
board.cache_hierarchy.l1dcaches.overallMissLatency::total  27298519500                       # number of overall miss ticks (Tick)
board.cache_hierarchy.l1dcaches.demandAccesses::processor.switch.core.data     23957217                       # number of demand (read+write) accesses (Count)
board.cache_hierarchy.l1dcaches.demandAccesses::total     23957217                       # number of demand (read+write) accesses (Count)
board.cache_hierarchy.l1dcaches.overallAccesses::processor.switch.core.data     23957217                       # number of overall (read+write) accesses (Count)
board.cache_hierarchy.l1dcaches.overallAccesses::total     23957217                       # number of overall (read+write) accesses (Count)
board.cache_hierarchy.l1dcaches.demandMissRate::processor.switch.core.data     0.093344                       # miss rate for demand accesses (Ratio)
board.cache_hierarchy.l1dcaches.demandMissRate::total     0.093344                       # miss rate for demand accesses (Ratio)
board.cache_hierarchy.l1dcaches.overallMissRate::processor.switch.core.data     0.093344                       # miss rate for overall accesses (Ratio)
board.cache_hierarchy.l1dcaches.overallMissRate::total     0.093344                       # miss rate for overall accesses (Ratio)
board.cache_hierarchy.l1dcaches.demandAvgMissLatency::processor.switch.core.data 12207.204385                       # average overall miss latency in ticks ((Tick/Count))
board.cache_hierarchy.l1dcaches.demandAvgMissLatency::total 12207.204385                       # average overall miss latency in ticks ((Tick/Count))
board.cache_hierarchy.l1dcaches.overallAvgMissLatency::processor.switch.core.data 12207.204385                       # average overall miss latency ((Tick/Count))
board.cache_hierarchy.l1dcaches.overallAvgMissLatency::total 12207.204385                       # average overall miss latency ((Tick/Count))
board.cache_hierarchy.l1dcaches.blockedCycles::no_mshrs            0                       # number of cycles access was blocked (Cycle)
board.cache_hierarchy.l1dcaches.blockedCycles::no_wbuffers            0                       # number of cycles access was blocked (Cycle)
board.cache_hierarchy.l1dcaches.blockedCycles::no_targets            0                       # number of cycles access was blocked (Cycle)
board.cache_hierarchy.l1dcaches.blockedCauses::no_mshrs            0                       # number of times access was blocked (Count)
board.cache_hierarchy.l1dcaches.blockedCauses::no_wbuffers            0                       # number of times access was blocked (Count)
board.cache_hierarchy.l1dcaches.blockedCauses::no_targets            0                       # number of times access was blocked (Count)
board.cache_hierarchy.l1dcaches.avgBlocked::no_mshrs          nan                       # average number of cycles each access was blocked ((Cycle/Count))
board.cache_hierarchy.l1dcaches.avgBlocked::no_wbuffers          nan                       # average number of cycles each access was blocked ((Cycle/Count))
board.cache_hierarchy.l1dcaches.avgBlocked::no_targets          nan                       # average number of cycles each access was blocked ((Cycle/Count))
board.cache_hierarchy.l1dcaches.writebacks::writebacks       699809                       # number of writebacks (Count)
board.cache_hierarchy.l1dcaches.writebacks::total       699809                       # number of writebacks (Count)
board.cache_hierarchy.l1dcaches.demandMshrHits::processor.switch.core.data       783583                       # number of demand (read+write) MSHR hits (Count)
board.cache_hierarchy.l1dcaches.demandMshrHits::total       783583                       # number of demand (read+write) MSHR hits (Count)
board.cache_hierarchy.l1dcaches.overallMshrHits::processor.switch.core.data       783583                       # number of overall MSHR hits (Count)
board.cache_hierarchy.l1dcaches.overallMshrHits::total       783583                       # number of overall MSHR hits (Count)
board.cache_hierarchy.l1dcaches.demandMshrMisses::processor.switch.core.data      1452680                       # number of demand (read+write) MSHR misses (Count)
board.cache_hierarchy.l1dcaches.demandMshrMisses::total      1452680                       # number of demand (read+write) MSHR misses (Count)
board.cache_hierarchy.l1dcaches.overallMshrMisses::cache_hierarchy.l1dcaches.prefetcher        18048                       # number of overall MSHR misses (Count)
board.cache_hierarchy.l1dcaches.overallMshrMisses::processor.switch.core.data      1452680                       # number of overall MSHR misses (Count)
board.cache_hierarchy.l1dcaches.overallMshrMisses::total      1470728                       # number of overall MSHR misses (Count)
board.cache_hierarchy.l1dcaches.demandMshrMissLatency::processor.switch.core.data  16221345000                       # number of demand (read+write) MSHR miss ticks (Tick)
board.cache_hierarchy.l1dcaches.demandMshrMissLatency::total  16221345000                       # number of demand (read+write) MSHR miss ticks (Tick)
board.cache_hierarchy.l1dcaches.overallMshrMissLatency::cache_hierarchy.l1dcaches.prefetcher    241847048                       # number of overall MSHR miss ticks (Tick)
board.cache_hierarchy.l1dcaches.overallMshrMissLatency::processor.switch.core.data  16221345000                       # number of overall MSHR miss ticks (Tick)
board.cache_hierarchy.l1dcaches.overallMshrMissLatency::total  16463192048                       # number of overall MSHR miss ticks (Tick)
board.cache_hierarchy.l1dcaches.demandMshrMissRate::processor.switch.core.data     0.060636                       # mshr miss ratio for demand accesses (Ratio)
board.cache_hierarchy.l1dcaches.demandMshrMissRate::total     0.060636                       # mshr miss ratio for demand accesses (Ratio)
board.cache_hierarchy.l1dcaches.overallMshrMissRate::cache_hierarchy.l1dcaches.prefetcher          inf                       # mshr miss ratio for overall accesses (Ratio)
board.cache_hierarchy.l1dcaches.overallMshrMissRate::processor.switch.core.data     0.060636                       # mshr miss ratio for overall accesses (Ratio)
board.cache_hierarchy.l1dcaches.overallMshrMissRate::total     0.061390                       # mshr miss ratio for overall accesses (Ratio)
board.cache_hierarchy.l1dcaches.demandAvgMshrMissLatency::processor.switch.core.data 11166.495718                       # average overall mshr miss latency ((Tick/Count))
board.cache_hierarchy.l1dcaches.demandAvgMshrMissLatency::total 11166.495718                       # average overall mshr miss latency ((Tick/Count))
board.cache_hierarchy.l1dcaches.overallAvgMshrMissLatency::cache_hierarchy.l1dcaches.prefetcher 13400.213209                       # average overall mshr miss latency ((Tick/Count))
board.cache_hierarchy.l1dcaches.overallAvgMshrMissLatency::processor.switch.core.data 11166.495718                       # average overall mshr miss latency ((Tick/Count))
board.cache_hierarchy.l1dcaches.overallAvgMshrMissLatency::total 11193.906724                       # average overall mshr miss latency ((Tick/Count))
board.cache_hierarchy.l1dcaches.replacements      1406062                       # number of replacements (Count)
board.cache_hierarchy.l1dcaches.HardPFReq.mshrMisses::cache_hierarchy.l1dcaches.prefetcher        18048                       # number of HardPFReq MSHR misses (Count)
board.cache_hierarchy.l1dcaches.HardPFReq.mshrMisses::total        18048                       # number of HardPFReq MSHR misses (Count)
board.cache_hierarchy.l1dcaches.HardPFReq.mshrMissLatency::cache_hierarchy.l1dcaches.prefetcher    241847048                       # number of HardPFReq MSHR miss ticks (Tick)
board.cache_hierarchy.l1dcaches.HardPFReq.mshrMissLatency::total    241847048                       # number of HardPFReq MSHR miss ticks (Tick)
board.cache_hierarchy.l1dcaches.HardPFReq.mshrMissRate::cache_hierarchy.l1dcaches.prefetcher          inf                       # mshr miss rate for HardPFReq accesses (Ratio)
board.cache_hierarchy.l1dcaches.HardPFReq.mshrMissRate::total          inf                       # mshr miss rate for HardPFReq accesses (Ratio)
board.cache_hierarchy.l1dcaches.HardPFReq.avgMshrMissLatency::cache_hierarchy.l1dcaches.prefetcher 13400.213209                       # average HardPFReq mshr miss latency ((Tick/Count))
board.cache_hierarchy.l1dcaches.HardPFReq.avgMshrMissLatency::total 13400.213209                       # average HardPFReq mshr miss latency ((Tick/Count))
board.cache_hierarchy.l1dcaches.ReadReq.hits::processor.switch.core.data     19830692                       # number of ReadReq hits (Count)
board.cache_hierarchy.l1dcaches.ReadReq.hits::total     19830692                       # number of ReadReq hits (Count)
board.cache_hierarchy.l1dcaches.ReadReq.misses::processor.switch.core.data      2151445                       # number of ReadReq misses (Count)
board.cache_hierarchy.l1dcaches.ReadReq.misses::total      2151445                       # number of ReadReq misses (Count)
board.cache_hierarchy.l1dcaches.ReadReq.missLatency::processor.switch.core.data  26845777250                       # number of ReadReq miss ticks (Tick)
board.cache_hierarchy.l1dcaches.ReadReq.missLatency::total  26845777250                       # number of ReadReq miss ticks (Tick)
board.cache_hierarchy.l1dcaches.ReadReq.accesses::processor.switch.core.data     21982137                       # number of ReadReq accesses(hits+misses) (Count)
board.cache_hierarchy.l1dcaches.ReadReq.accesses::total     21982137                       # number of ReadReq accesses(hits+misses) (Count)
board.cache_hierarchy.l1dcaches.ReadReq.missRate::processor.switch.core.data     0.097872                       # miss rate for ReadReq accesses (Ratio)
board.cache_hierarchy.l1dcaches.ReadReq.missRate::total     0.097872                       # miss rate for ReadReq accesses (Ratio)
board.cache_hierarchy.l1dcaches.ReadReq.avgMissLatency::processor.switch.core.data 12478.021632                       # average ReadReq miss latency ((Tick/Count))
board.cache_hierarchy.l1dcaches.ReadReq.avgMissLatency::total 12478.021632                       # average ReadReq miss latency ((Tick/Count))
board.cache_hierarchy.l1dcaches.ReadReq.mshrHits::processor.switch.core.data       783583                       # number of ReadReq MSHR hits (Count)
board.cache_hierarchy.l1dcaches.ReadReq.mshrHits::total       783583                       # number of ReadReq MSHR hits (Count)
board.cache_hierarchy.l1dcaches.ReadReq.mshrMisses::processor.switch.core.data      1367862                       # number of ReadReq MSHR misses (Count)
board.cache_hierarchy.l1dcaches.ReadReq.mshrMisses::total      1367862                       # number of ReadReq MSHR misses (Count)
board.cache_hierarchy.l1dcaches.ReadReq.mshrMissLatency::processor.switch.core.data  15789807250                       # number of ReadReq MSHR miss ticks (Tick)
board.cache_hierarchy.l1dcaches.ReadReq.mshrMissLatency::total  15789807250                       # number of ReadReq MSHR miss ticks (Tick)
board.cache_hierarchy.l1dcaches.ReadReq.mshrMissRate::processor.switch.core.data     0.062226                       # mshr miss rate for ReadReq accesses (Ratio)
board.cache_hierarchy.l1dcaches.ReadReq.mshrMissRate::total     0.062226                       # mshr miss rate for ReadReq accesses (Ratio)
board.cache_hierarchy.l1dcaches.ReadReq.avgMshrMissLatency::processor.switch.core.data 11543.421230                       # average ReadReq mshr miss latency ((Tick/Count))
board.cache_hierarchy.l1dcaches.ReadReq.avgMshrMissLatency::total 11543.421230                       # average ReadReq mshr miss latency ((Tick/Count))
board.cache_hierarchy.l1dcaches.WriteReq.hits::processor.switch.core.data      1890262                       # number of WriteReq hits (Count)
board.cache_hierarchy.l1dcaches.WriteReq.hits::total      1890262                       # number of WriteReq hits (Count)
board.cache_hierarchy.l1dcaches.WriteReq.misses::processor.switch.core.data        84818                       # number of WriteReq misses (Count)
board.cache_hierarchy.l1dcaches.WriteReq.misses::total        84818                       # number of WriteReq misses (Count)
board.cache_hierarchy.l1dcaches.WriteReq.missLatency::processor.switch.core.data    452742250                       # number of WriteReq miss ticks (Tick)
board.cache_hierarchy.l1dcaches.WriteReq.missLatency::total    452742250                       # number of WriteReq miss ticks (Tick)
board.cache_hierarchy.l1dcaches.WriteReq.accesses::processor.switch.core.data      1975080                       # number of WriteReq accesses(hits+misses) (Count)
board.cache_hierarchy.l1dcaches.WriteReq.accesses::total      1975080                       # number of WriteReq accesses(hits+misses) (Count)
board.cache_hierarchy.l1dcaches.WriteReq.missRate::processor.switch.core.data     0.042944                       # miss rate for WriteReq accesses (Ratio)
board.cache_hierarchy.l1dcaches.WriteReq.missRate::total     0.042944                       # miss rate for WriteReq accesses (Ratio)
board.cache_hierarchy.l1dcaches.WriteReq.avgMissLatency::processor.switch.core.data  5337.808602                       # average WriteReq miss latency ((Tick/Count))
board.cache_hierarchy.l1dcaches.WriteReq.avgMissLatency::total  5337.808602                       # average WriteReq miss latency ((Tick/Count))
board.cache_hierarchy.l1dcaches.WriteReq.mshrMisses::processor.switch.core.data        84818                       # number of WriteReq MSHR misses (Count)
board.cache_hierarchy.l1dcaches.WriteReq.mshrMisses::total        84818                       # number of WriteReq MSHR misses (Count)
board.cache_hierarchy.l1dcaches.WriteReq.mshrMissLatency::processor.switch.core.data    431537750                       # number of WriteReq MSHR miss ticks (Tick)
board.cache_hierarchy.l1dcaches.WriteReq.mshrMissLatency::total    431537750                       # number of WriteReq MSHR miss ticks (Tick)
board.cache_hierarchy.l1dcaches.WriteReq.mshrMissRate::processor.switch.core.data     0.042944                       # mshr miss rate for WriteReq accesses (Ratio)
board.cache_hierarchy.l1dcaches.WriteReq.mshrMissRate::total     0.042944                       # mshr miss rate for WriteReq accesses (Ratio)
board.cache_hierarchy.l1dcaches.WriteReq.avgMshrMissLatency::processor.switch.core.data  5087.808602                       # average WriteReq mshr miss latency ((Tick/Count))
board.cache_hierarchy.l1dcaches.WriteReq.avgMshrMissLatency::total  5087.808602                       # average WriteReq mshr miss latency ((Tick/Count))
board.cache_hierarchy.l1dcaches.power_state.pwrStateResidencyTicks::UNDEFINED  52164901000                       # Cumulative time (in ticks) in various power states (Tick)
board.cache_hierarchy.l1dcaches.prefetcher.demandMshrMisses      1452680                       # demands not covered by prefetchs (Count)
board.cache_hierarchy.l1dcaches.prefetcher.pfIssued        50970                       # number of hwpf issued (Count)
board.cache_hierarchy.l1dcaches.prefetcher.pfUnused         3785                       # number of HardPF blocks evicted w/o reference (Count)
board.cache_hierarchy.l1dcaches.prefetcher.pfUseful        14276                       # number of useful prefetch (Count)
board.cache_hierarchy.l1dcaches.prefetcher.pfUsefulButMiss            7                       # number of hit on prefetch but cache block is not in an usable state (Count)
board.cache_hierarchy.l1dcaches.prefetcher.accuracy     0.280086                       # accuracy of the prefetcher (Count)
board.cache_hierarchy.l1dcaches.prefetcher.coverage     0.009732                       # coverage brought by this prefetcher (Count)
board.cache_hierarchy.l1dcaches.prefetcher.pfHitInCache        32777                       # number of prefetches hitting in cache (Count)
board.cache_hierarchy.l1dcaches.prefetcher.pfHitInMSHR          145                       # number of prefetches hitting in a MSHR (Count)
board.cache_hierarchy.l1dcaches.prefetcher.pfHitInWB            0                       # number of prefetches hit in the Write Buffer (Count)
board.cache_hierarchy.l1dcaches.prefetcher.pfLate        32922                       # number of late prefetches (hitting in cache, MSHR or WB) (Count)
board.cache_hierarchy.l1dcaches.prefetcher.pfIdentified        50970                       # number of prefetch candidates identified (Count)
board.cache_hierarchy.l1dcaches.prefetcher.pfBufferHit            0                       # number of redundant prefetches already in prefetch queue (Count)
board.cache_hierarchy.l1dcaches.prefetcher.pfInCache            0                       # number of redundant prefetches already in cache/mshr dropped (Count)
board.cache_hierarchy.l1dcaches.prefetcher.pfRemovedDemand            0                       # number of prefetches dropped due to a demand for the same address (Count)
board.cache_hierarchy.l1dcaches.prefetcher.pfRemovedFull            0                       # number of prefetches dropped due to prefetch queue size (Count)
board.cache_hierarchy.l1dcaches.prefetcher.pfSpanPage      2215545                       # number of prefetches that crossed the page (Count)
board.cache_hierarchy.l1dcaches.prefetcher.pfUsefulSpanPage          500                       # number of prefetches that is useful and crossed the page (Count)
board.cache_hierarchy.l1dcaches.prefetcher.power_state.pwrStateResidencyTicks::UNDEFINED  52164901000                       # Cumulative time (in ticks) in various power states (Tick)
board.cache_hierarchy.l1dcaches.tags.tagsInUse          512                       # Average ticks per tags in use ((Tick/Count))
board.cache_hierarchy.l1dcaches.tags.totalRefs     14271429                       # Total number of references to valid blocks. (Count)
board.cache_hierarchy.l1dcaches.tags.sampledRefs      1406062                       # Sample count of references to valid blocks. (Count)
board.cache_hierarchy.l1dcaches.tags.avgRefs    10.149929                       # Average number of references to valid blocks. ((Count/Count))
board.cache_hierarchy.l1dcaches.tags.warmupTick            0                       # The tick when the warmup percentage was hit. (Tick)
board.cache_hierarchy.l1dcaches.tags.occupancies::cache_hierarchy.l1dcaches.prefetcher    38.011313                       # Average occupied blocks per tick, per requestor ((Count/Tick))
board.cache_hierarchy.l1dcaches.tags.occupancies::processor.switch.core.data   473.988687                       # Average occupied blocks per tick, per requestor ((Count/Tick))
board.cache_hierarchy.l1dcaches.tags.avgOccs::cache_hierarchy.l1dcaches.prefetcher     0.074241                       # Average percentage of cache occupancy ((Ratio/Tick))
board.cache_hierarchy.l1dcaches.tags.avgOccs::processor.switch.core.data     0.925759                       # Average percentage of cache occupancy ((Ratio/Tick))
board.cache_hierarchy.l1dcaches.tags.avgOccs::total            1                       # Average percentage of cache occupancy ((Ratio/Tick))
board.cache_hierarchy.l1dcaches.tags.occupanciesTaskId::1022           23                       # Occupied blocks per task id (Count)
board.cache_hierarchy.l1dcaches.tags.occupanciesTaskId::1024          489                       # Occupied blocks per task id (Count)
board.cache_hierarchy.l1dcaches.tags.ageTaskId_1022::1            1                       # Occupied blocks per task id, per block age (Count)
board.cache_hierarchy.l1dcaches.tags.ageTaskId_1022::2            4                       # Occupied blocks per task id, per block age (Count)
board.cache_hierarchy.l1dcaches.tags.ageTaskId_1022::3           15                       # Occupied blocks per task id, per block age (Count)
board.cache_hierarchy.l1dcaches.tags.ageTaskId_1022::4            3                       # Occupied blocks per task id, per block age (Count)
board.cache_hierarchy.l1dcaches.tags.ageTaskId_1024::0           59                       # Occupied blocks per task id, per block age (Count)
board.cache_hierarchy.l1dcaches.tags.ageTaskId_1024::1          190                       # Occupied blocks per task id, per block age (Count)
board.cache_hierarchy.l1dcaches.tags.ageTaskId_1024::2          100                       # Occupied blocks per task id, per block age (Count)
board.cache_hierarchy.l1dcaches.tags.ageTaskId_1024::3          124                       # Occupied blocks per task id, per block age (Count)
board.cache_hierarchy.l1dcaches.tags.ageTaskId_1024::4           16                       # Occupied blocks per task id, per block age (Count)
board.cache_hierarchy.l1dcaches.tags.ratioOccsTaskId::1022     0.044922                       # Ratio of occupied blocks and all blocks, per task id (Ratio)
board.cache_hierarchy.l1dcaches.tags.ratioOccsTaskId::1024     0.955078                       # Ratio of occupied blocks and all blocks, per task id (Ratio)
board.cache_hierarchy.l1dcaches.tags.tagAccesses    193063798                       # Number of tag accesses (Count)
board.cache_hierarchy.l1dcaches.tags.dataAccesses    193063798                       # Number of data accesses (Count)
board.cache_hierarchy.l1dcaches.tags.power_state.pwrStateResidencyTicks::UNDEFINED  52164901000                       # Cumulative time (in ticks) in various power states (Tick)
board.cache_hierarchy.l1icaches.demandHits::processor.switch.core.inst     45547315                       # number of demand (read+write) hits (Count)
board.cache_hierarchy.l1icaches.demandHits::total     45547315                       # number of demand (read+write) hits (Count)
board.cache_hierarchy.l1icaches.overallHits::processor.switch.core.inst     45547315                       # number of overall hits (Count)
board.cache_hierarchy.l1icaches.overallHits::total     45547315                       # number of overall hits (Count)
board.cache_hierarchy.l1icaches.demandAccesses::processor.switch.core.inst     45547315                       # number of demand (read+write) accesses (Count)
board.cache_hierarchy.l1icaches.demandAccesses::total     45547315                       # number of demand (read+write) accesses (Count)
board.cache_hierarchy.l1icaches.overallAccesses::processor.switch.core.inst     45547315                       # number of overall (read+write) accesses (Count)
board.cache_hierarchy.l1icaches.overallAccesses::total     45547315                       # number of overall (read+write) accesses (Count)
board.cache_hierarchy.l1icaches.blockedCycles::no_mshrs            0                       # number of cycles access was blocked (Cycle)
board.cache_hierarchy.l1icaches.blockedCycles::no_wbuffers            0                       # number of cycles access was blocked (Cycle)
board.cache_hierarchy.l1icaches.blockedCycles::no_targets            0                       # number of cycles access was blocked (Cycle)
board.cache_hierarchy.l1icaches.blockedCauses::no_mshrs            0                       # number of times access was blocked (Count)
board.cache_hierarchy.l1icaches.blockedCauses::no_wbuffers            0                       # number of times access was blocked (Count)
board.cache_hierarchy.l1icaches.blockedCauses::no_targets            0                       # number of times access was blocked (Count)
board.cache_hierarchy.l1icaches.avgBlocked::no_mshrs          nan                       # average number of cycles each access was blocked ((Cycle/Count))
board.cache_hierarchy.l1icaches.avgBlocked::no_wbuffers          nan                       # average number of cycles each access was blocked ((Cycle/Count))
board.cache_hierarchy.l1icaches.avgBlocked::no_targets          nan                       # average number of cycles each access was blocked ((Cycle/Count))
board.cache_hierarchy.l1icaches.replacements            0                       # number of replacements (Count)
board.cache_hierarchy.l1icaches.ReadReq.hits::processor.switch.core.inst     45547315                       # number of ReadReq hits (Count)
board.cache_hierarchy.l1icaches.ReadReq.hits::total     45547315                       # number of ReadReq hits (Count)
board.cache_hierarchy.l1icaches.ReadReq.accesses::processor.switch.core.inst     45547315                       # number of ReadReq accesses(hits+misses) (Count)
board.cache_hierarchy.l1icaches.ReadReq.accesses::total     45547315                       # number of ReadReq accesses(hits+misses) (Count)
board.cache_hierarchy.l1icaches.power_state.pwrStateResidencyTicks::UNDEFINED  52164901000                       # Cumulative time (in ticks) in various power states (Tick)
board.cache_hierarchy.l1icaches.tags.tagsInUse           16                       # Average ticks per tags in use ((Tick/Count))
board.cache_hierarchy.l1icaches.tags.totalRefs            0                       # Total number of references to valid blocks. (Count)
board.cache_hierarchy.l1icaches.tags.sampledRefs            0                       # Sample count of references to valid blocks. (Count)
board.cache_hierarchy.l1icaches.tags.avgRefs          nan                       # Average number of references to valid blocks. ((Count/Count))
board.cache_hierarchy.l1icaches.tags.warmupTick            0                       # The tick when the warmup percentage was hit. (Tick)
board.cache_hierarchy.l1icaches.tags.occupancies::processor.switch.core.inst           16                       # Average occupied blocks per tick, per requestor ((Count/Tick))
board.cache_hierarchy.l1icaches.tags.avgOccs::processor.switch.core.inst     0.031250                       # Average percentage of cache occupancy ((Ratio/Tick))
board.cache_hierarchy.l1icaches.tags.avgOccs::total     0.031250                       # Average percentage of cache occupancy ((Ratio/Tick))
board.cache_hierarchy.l1icaches.tags.occupanciesTaskId::1024           16                       # Occupied blocks per task id (Count)
board.cache_hierarchy.l1icaches.tags.ageTaskId_1024::4           16                       # Occupied blocks per task id, per block age (Count)
board.cache_hierarchy.l1icaches.tags.ratioOccsTaskId::1024     0.031250                       # Ratio of occupied blocks and all blocks, per task id (Ratio)
board.cache_hierarchy.l1icaches.tags.tagAccesses    364378520                       # Number of tag accesses (Count)
board.cache_hierarchy.l1icaches.tags.dataAccesses    364378520                       # Number of data accesses (Count)
board.cache_hierarchy.l1icaches.tags.power_state.pwrStateResidencyTicks::UNDEFINED  52164901000                       # Cumulative time (in ticks) in various power states (Tick)
board.cache_hierarchy.l2buses.transDist::ReadResp      1385909                       # Transaction distribution (Count)
board.cache_hierarchy.l2buses.transDist::WritebackDirty       870026                       # Transaction distribution (Count)
board.cache_hierarchy.l2buses.transDist::CleanEvict       780536                       # Transaction distribution (Count)
board.cache_hierarchy.l2buses.transDist::UpgradeReq        64665                       # Transaction distribution (Count)
board.cache_hierarchy.l2buses.transDist::UpgradeResp        64665                       # Transaction distribution (Count)
board.cache_hierarchy.l2buses.transDist::ReadExReq        20153                       # Transaction distribution (Count)
board.cache_hierarchy.l2buses.transDist::ReadExResp        20153                       # Transaction distribution (Count)
board.cache_hierarchy.l2buses.transDist::ReadSharedReq      1385910                       # Transaction distribution (Count)
board.cache_hierarchy.l2buses.pktCount_board.cache_hierarchy.l1dcaches.mem_side_port::board.cache_hierarchy.l2caches.cpu_side_port      4347517                       # Packet count per connected requestor and responder (Count)
board.cache_hierarchy.l2buses.pktCount::total      4347517                       # Packet count per connected requestor and responder (Count)
board.cache_hierarchy.l2buses.pktSize_board.cache_hierarchy.l1dcaches.mem_side_port::board.cache_hierarchy.l2caches.cpu_side_port    134775744                       # Cumulative packet size per connected requestor and responder (Byte)
board.cache_hierarchy.l2buses.pktSize::total    134775744                       # Cumulative packet size per connected requestor and responder (Byte)
board.cache_hierarchy.l2buses.snoops           244500                       # Total snoops (Count)
board.cache_hierarchy.l2buses.snoopTraffic     10893888                       # Total snoop traffic (Byte)
board.cache_hierarchy.l2buses.snoopFanout::samples      1715228                       # Request fanout histogram (Count)
board.cache_hierarchy.l2buses.snoopFanout::mean     0.000014                       # Request fanout histogram (Count)
board.cache_hierarchy.l2buses.snoopFanout::stdev     0.003741                       # Request fanout histogram (Count)
board.cache_hierarchy.l2buses.snoopFanout::underflows            0      0.00%      0.00% # Request fanout histogram (Count)
board.cache_hierarchy.l2buses.snoopFanout::0      1715204    100.00%    100.00% # Request fanout histogram (Count)
board.cache_hierarchy.l2buses.snoopFanout::1           24      0.00%    100.00% # Request fanout histogram (Count)
board.cache_hierarchy.l2buses.snoopFanout::2            0      0.00%    100.00% # Request fanout histogram (Count)
board.cache_hierarchy.l2buses.snoopFanout::3            0      0.00%    100.00% # Request fanout histogram (Count)
board.cache_hierarchy.l2buses.snoopFanout::4            0      0.00%    100.00% # Request fanout histogram (Count)
board.cache_hierarchy.l2buses.snoopFanout::overflows            0      0.00%    100.00% # Request fanout histogram (Count)
board.cache_hierarchy.l2buses.snoopFanout::min_value            0                       # Request fanout histogram (Count)
board.cache_hierarchy.l2buses.snoopFanout::max_value            1                       # Request fanout histogram (Count)
board.cache_hierarchy.l2buses.snoopFanout::total      1715228                       # Request fanout histogram (Count)
board.cache_hierarchy.l2buses.power_state.pwrStateResidencyTicks::UNDEFINED  52164901000                       # Cumulative time (in ticks) in various power states (Tick)
board.cache_hierarchy.l2buses.reqLayer0.occupancy    896469395                       # Layer occupancy (ticks) (Tick)
board.cache_hierarchy.l2buses.reqLayer0.utilization          0.0                       # Layer utilization (Ratio)
board.cache_hierarchy.l2buses.respLayer1.occupancy    719197250                       # Layer occupancy (ticks) (Tick)
board.cache_hierarchy.l2buses.respLayer1.utilization          0.0                       # Layer utilization (Ratio)
board.cache_hierarchy.l2buses.snoop_filter.totRequests      2876790                       # Total number of requests made to the snoop filter. (Count)
board.cache_hierarchy.l2buses.snoop_filter.hitSingleRequests      1470727                       # Number of requests hitting in the snoop filter with a single holder of the requested data. (Count)
board.cache_hierarchy.l2buses.snoop_filter.hitMultiRequests            0                       # Number of requests hitting in the snoop filter with multiple (>1) holders of the requested data. (Count)
board.cache_hierarchy.l2buses.snoop_filter.totSnoops           24                       # Total number of snoops made to the snoop filter. (Count)
board.cache_hierarchy.l2buses.snoop_filter.hitSingleSnoops           24                       # Number of snoops hitting in the snoop filter with a single holder of the requested data. (Count)
board.cache_hierarchy.l2buses.snoop_filter.hitMultiSnoops            0                       # Number of snoops hitting in the snoop filter with multiple (>1) holders of the requested data. (Count)
board.cache_hierarchy.l2caches.demandHits::cache_hierarchy.l1dcaches.prefetcher        15182                       # number of demand (read+write) hits (Count)
board.cache_hierarchy.l2caches.demandHits::processor.switch.core.data      1146059                       # number of demand (read+write) hits (Count)
board.cache_hierarchy.l2caches.demandHits::total      1161241                       # number of demand (read+write) hits (Count)
board.cache_hierarchy.l2caches.overallHits::cache_hierarchy.l1dcaches.prefetcher        15182                       # number of overall hits (Count)
board.cache_hierarchy.l2caches.overallHits::processor.switch.core.data      1146059                       # number of overall hits (Count)
board.cache_hierarchy.l2caches.overallHits::total      1161241                       # number of overall hits (Count)
board.cache_hierarchy.l2caches.demandMisses::cache_hierarchy.l1dcaches.prefetcher         2866                       # number of demand (read+write) misses (Count)
board.cache_hierarchy.l2caches.demandMisses::processor.switch.core.data       241956                       # number of demand (read+write) misses (Count)
board.cache_hierarchy.l2caches.demandMisses::total       244822                       # number of demand (read+write) misses (Count)
board.cache_hierarchy.l2caches.overallMisses::cache_hierarchy.l1dcaches.prefetcher         2866                       # number of overall misses (Count)
board.cache_hierarchy.l2caches.overallMisses::processor.switch.core.data       241956                       # number of overall misses (Count)
board.cache_hierarchy.l2caches.overallMisses::total       244822                       # number of overall misses (Count)
board.cache_hierarchy.l2caches.demandMissLatency::cache_hierarchy.l1dcaches.prefetcher    172884790                       # number of demand (read+write) miss ticks (Tick)
board.cache_hierarchy.l2caches.demandMissLatency::processor.switch.core.data   9843467000                       # number of demand (read+write) miss ticks (Tick)
board.cache_hierarchy.l2caches.demandMissLatency::total  10016351790                       # number of demand (read+write) miss ticks (Tick)
board.cache_hierarchy.l2caches.overallMissLatency::cache_hierarchy.l1dcaches.prefetcher    172884790                       # number of overall miss ticks (Tick)
board.cache_hierarchy.l2caches.overallMissLatency::processor.switch.core.data   9843467000                       # number of overall miss ticks (Tick)
board.cache_hierarchy.l2caches.overallMissLatency::total  10016351790                       # number of overall miss ticks (Tick)
board.cache_hierarchy.l2caches.demandAccesses::cache_hierarchy.l1dcaches.prefetcher        18048                       # number of demand (read+write) accesses (Count)
board.cache_hierarchy.l2caches.demandAccesses::processor.switch.core.data      1388015                       # number of demand (read+write) accesses (Count)
board.cache_hierarchy.l2caches.demandAccesses::total      1406063                       # number of demand (read+write) accesses (Count)
board.cache_hierarchy.l2caches.overallAccesses::cache_hierarchy.l1dcaches.prefetcher        18048                       # number of overall (read+write) accesses (Count)
board.cache_hierarchy.l2caches.overallAccesses::processor.switch.core.data      1388015                       # number of overall (read+write) accesses (Count)
board.cache_hierarchy.l2caches.overallAccesses::total      1406063                       # number of overall (read+write) accesses (Count)
board.cache_hierarchy.l2caches.demandMissRate::cache_hierarchy.l1dcaches.prefetcher     0.158799                       # miss rate for demand accesses (Ratio)
board.cache_hierarchy.l2caches.demandMissRate::processor.switch.core.data     0.174318                       # miss rate for demand accesses (Ratio)
board.cache_hierarchy.l2caches.demandMissRate::total     0.174119                       # miss rate for demand accesses (Ratio)
board.cache_hierarchy.l2caches.overallMissRate::cache_hierarchy.l1dcaches.prefetcher     0.158799                       # miss rate for overall accesses (Ratio)
board.cache_hierarchy.l2caches.overallMissRate::processor.switch.core.data     0.174318                       # miss rate for overall accesses (Ratio)
board.cache_hierarchy.l2caches.overallMissRate::total     0.174119                       # miss rate for overall accesses (Ratio)
board.cache_hierarchy.l2caches.demandAvgMissLatency::cache_hierarchy.l1dcaches.prefetcher 60322.676204                       # average overall miss latency in ticks ((Tick/Count))
board.cache_hierarchy.l2caches.demandAvgMissLatency::processor.switch.core.data 40682.880358                       # average overall miss latency in ticks ((Tick/Count))
board.cache_hierarchy.l2caches.demandAvgMissLatency::total 40912.792927                       # average overall miss latency in ticks ((Tick/Count))
board.cache_hierarchy.l2caches.overallAvgMissLatency::cache_hierarchy.l1dcaches.prefetcher 60322.676204                       # average overall miss latency ((Tick/Count))
board.cache_hierarchy.l2caches.overallAvgMissLatency::processor.switch.core.data 40682.880358                       # average overall miss latency ((Tick/Count))
board.cache_hierarchy.l2caches.overallAvgMissLatency::total 40912.792927                       # average overall miss latency ((Tick/Count))
board.cache_hierarchy.l2caches.blockedCycles::no_mshrs            0                       # number of cycles access was blocked (Cycle)
board.cache_hierarchy.l2caches.blockedCycles::no_wbuffers            0                       # number of cycles access was blocked (Cycle)
board.cache_hierarchy.l2caches.blockedCycles::no_targets            0                       # number of cycles access was blocked (Cycle)
board.cache_hierarchy.l2caches.blockedCauses::no_mshrs            0                       # number of times access was blocked (Count)
board.cache_hierarchy.l2caches.blockedCauses::no_wbuffers            0                       # number of times access was blocked (Count)
board.cache_hierarchy.l2caches.blockedCauses::no_targets            0                       # number of times access was blocked (Count)
board.cache_hierarchy.l2caches.avgBlocked::no_mshrs          nan                       # average number of cycles each access was blocked ((Cycle/Count))
board.cache_hierarchy.l2caches.avgBlocked::no_wbuffers          nan                       # average number of cycles each access was blocked ((Cycle/Count))
board.cache_hierarchy.l2caches.avgBlocked::no_targets          nan                       # average number of cycles each access was blocked ((Cycle/Count))
board.cache_hierarchy.l2caches.writebacks::writebacks       170217                       # number of writebacks (Count)
board.cache_hierarchy.l2caches.writebacks::total       170217                       # number of writebacks (Count)
board.cache_hierarchy.l2caches.demandMshrMisses::cache_hierarchy.l1dcaches.prefetcher         2866                       # number of demand (read+write) MSHR misses (Count)
board.cache_hierarchy.l2caches.demandMshrMisses::processor.switch.core.data       241956                       # number of demand (read+write) MSHR misses (Count)
board.cache_hierarchy.l2caches.demandMshrMisses::total       244822                       # number of demand (read+write) MSHR misses (Count)
board.cache_hierarchy.l2caches.overallMshrMisses::cache_hierarchy.l1dcaches.prefetcher         2866                       # number of overall MSHR misses (Count)
board.cache_hierarchy.l2caches.overallMshrMisses::processor.switch.core.data       241956                       # number of overall MSHR misses (Count)
board.cache_hierarchy.l2caches.overallMshrMisses::total       244822                       # number of overall MSHR misses (Count)
board.cache_hierarchy.l2caches.demandMshrMissLatency::cache_hierarchy.l1dcaches.prefetcher    172168290                       # number of demand (read+write) MSHR miss ticks (Tick)
board.cache_hierarchy.l2caches.demandMshrMissLatency::processor.switch.core.data   9782978000                       # number of demand (read+write) MSHR miss ticks (Tick)
board.cache_hierarchy.l2caches.demandMshrMissLatency::total   9955146290                       # number of demand (read+write) MSHR miss ticks (Tick)
board.cache_hierarchy.l2caches.overallMshrMissLatency::cache_hierarchy.l1dcaches.prefetcher    172168290                       # number of overall MSHR miss ticks (Tick)
board.cache_hierarchy.l2caches.overallMshrMissLatency::processor.switch.core.data   9782978000                       # number of overall MSHR miss ticks (Tick)
board.cache_hierarchy.l2caches.overallMshrMissLatency::total   9955146290                       # number of overall MSHR miss ticks (Tick)
board.cache_hierarchy.l2caches.demandMshrMissRate::cache_hierarchy.l1dcaches.prefetcher     0.158799                       # mshr miss ratio for demand accesses (Ratio)
board.cache_hierarchy.l2caches.demandMshrMissRate::processor.switch.core.data     0.174318                       # mshr miss ratio for demand accesses (Ratio)
board.cache_hierarchy.l2caches.demandMshrMissRate::total     0.174119                       # mshr miss ratio for demand accesses (Ratio)
board.cache_hierarchy.l2caches.overallMshrMissRate::cache_hierarchy.l1dcaches.prefetcher     0.158799                       # mshr miss ratio for overall accesses (Ratio)
board.cache_hierarchy.l2caches.overallMshrMissRate::processor.switch.core.data     0.174318                       # mshr miss ratio for overall accesses (Ratio)
board.cache_hierarchy.l2caches.overallMshrMissRate::total     0.174119                       # mshr miss ratio for overall accesses (Ratio)
board.cache_hierarchy.l2caches.demandAvgMshrMissLatency::cache_hierarchy.l1dcaches.prefetcher 60072.676204                       # average overall mshr miss latency ((Tick/Count))
board.cache_hierarchy.l2caches.demandAvgMshrMissLatency::processor.switch.core.data 40432.880358                       # average overall mshr miss latency ((Tick/Count))
board.cache_hierarchy.l2caches.demandAvgMshrMissLatency::total 40662.792927                       # average overall mshr miss latency ((Tick/Count))
board.cache_hierarchy.l2caches.overallAvgMshrMissLatency::cache_hierarchy.l1dcaches.prefetcher 60072.676204                       # average overall mshr miss latency ((Tick/Count))
board.cache_hierarchy.l2caches.overallAvgMshrMissLatency::processor.switch.core.data 40432.880358                       # average overall mshr miss latency ((Tick/Count))
board.cache_hierarchy.l2caches.overallAvgMshrMissLatency::total 40662.792927                       # average overall mshr miss latency ((Tick/Count))
board.cache_hierarchy.l2caches.replacements       244459                       # number of replacements (Count)
board.cache_hierarchy.l2caches.ReadExReq.hits::processor.switch.core.data        19629                       # number of ReadExReq hits (Count)
board.cache_hierarchy.l2caches.ReadExReq.hits::total        19629                       # number of ReadExReq hits (Count)
board.cache_hierarchy.l2caches.ReadExReq.misses::processor.switch.core.data          524                       # number of ReadExReq misses (Count)
board.cache_hierarchy.l2caches.ReadExReq.misses::total          524                       # number of ReadExReq misses (Count)
board.cache_hierarchy.l2caches.ReadExReq.missLatency::processor.switch.core.data      9130000                       # number of ReadExReq miss ticks (Tick)
board.cache_hierarchy.l2caches.ReadExReq.missLatency::total      9130000                       # number of ReadExReq miss ticks (Tick)
board.cache_hierarchy.l2caches.ReadExReq.accesses::processor.switch.core.data        20153                       # number of ReadExReq accesses(hits+misses) (Count)
board.cache_hierarchy.l2caches.ReadExReq.accesses::total        20153                       # number of ReadExReq accesses(hits+misses) (Count)
board.cache_hierarchy.l2caches.ReadExReq.missRate::processor.switch.core.data     0.026001                       # miss rate for ReadExReq accesses (Ratio)
board.cache_hierarchy.l2caches.ReadExReq.missRate::total     0.026001                       # miss rate for ReadExReq accesses (Ratio)
board.cache_hierarchy.l2caches.ReadExReq.avgMissLatency::processor.switch.core.data 17423.664122                       # average ReadExReq miss latency ((Tick/Count))
board.cache_hierarchy.l2caches.ReadExReq.avgMissLatency::total 17423.664122                       # average ReadExReq miss latency ((Tick/Count))
board.cache_hierarchy.l2caches.ReadExReq.mshrMisses::processor.switch.core.data          524                       # number of ReadExReq MSHR misses (Count)
board.cache_hierarchy.l2caches.ReadExReq.mshrMisses::total          524                       # number of ReadExReq MSHR misses (Count)
board.cache_hierarchy.l2caches.ReadExReq.mshrMissLatency::processor.switch.core.data      8999000                       # number of ReadExReq MSHR miss ticks (Tick)
board.cache_hierarchy.l2caches.ReadExReq.mshrMissLatency::total      8999000                       # number of ReadExReq MSHR miss ticks (Tick)
board.cache_hierarchy.l2caches.ReadExReq.mshrMissRate::processor.switch.core.data     0.026001                       # mshr miss rate for ReadExReq accesses (Ratio)
board.cache_hierarchy.l2caches.ReadExReq.mshrMissRate::total     0.026001                       # mshr miss rate for ReadExReq accesses (Ratio)
board.cache_hierarchy.l2caches.ReadExReq.avgMshrMissLatency::processor.switch.core.data 17173.664122                       # average ReadExReq mshr miss latency ((Tick/Count))
board.cache_hierarchy.l2caches.ReadExReq.avgMshrMissLatency::total 17173.664122                       # average ReadExReq mshr miss latency ((Tick/Count))
board.cache_hierarchy.l2caches.ReadSharedReq.hits::cache_hierarchy.l1dcaches.prefetcher        15182                       # number of ReadSharedReq hits (Count)
board.cache_hierarchy.l2caches.ReadSharedReq.hits::processor.switch.core.data      1126430                       # number of ReadSharedReq hits (Count)
board.cache_hierarchy.l2caches.ReadSharedReq.hits::total      1141612                       # number of ReadSharedReq hits (Count)
board.cache_hierarchy.l2caches.ReadSharedReq.misses::cache_hierarchy.l1dcaches.prefetcher         2866                       # number of ReadSharedReq misses (Count)
board.cache_hierarchy.l2caches.ReadSharedReq.misses::processor.switch.core.data       241432                       # number of ReadSharedReq misses (Count)
board.cache_hierarchy.l2caches.ReadSharedReq.misses::total       244298                       # number of ReadSharedReq misses (Count)
board.cache_hierarchy.l2caches.ReadSharedReq.missLatency::cache_hierarchy.l1dcaches.prefetcher    172884790                       # number of ReadSharedReq miss ticks (Tick)
board.cache_hierarchy.l2caches.ReadSharedReq.missLatency::processor.switch.core.data   9834337000                       # number of ReadSharedReq miss ticks (Tick)
board.cache_hierarchy.l2caches.ReadSharedReq.missLatency::total  10007221790                       # number of ReadSharedReq miss ticks (Tick)
board.cache_hierarchy.l2caches.ReadSharedReq.accesses::cache_hierarchy.l1dcaches.prefetcher        18048                       # number of ReadSharedReq accesses(hits+misses) (Count)
board.cache_hierarchy.l2caches.ReadSharedReq.accesses::processor.switch.core.data      1367862                       # number of ReadSharedReq accesses(hits+misses) (Count)
board.cache_hierarchy.l2caches.ReadSharedReq.accesses::total      1385910                       # number of ReadSharedReq accesses(hits+misses) (Count)
board.cache_hierarchy.l2caches.ReadSharedReq.missRate::cache_hierarchy.l1dcaches.prefetcher     0.158799                       # miss rate for ReadSharedReq accesses (Ratio)
board.cache_hierarchy.l2caches.ReadSharedReq.missRate::processor.switch.core.data     0.176503                       # miss rate for ReadSharedReq accesses (Ratio)
board.cache_hierarchy.l2caches.ReadSharedReq.missRate::total     0.176273                       # miss rate for ReadSharedReq accesses (Ratio)
board.cache_hierarchy.l2caches.ReadSharedReq.avgMissLatency::cache_hierarchy.l1dcaches.prefetcher 60322.676204                       # average ReadSharedReq miss latency ((Tick/Count))
board.cache_hierarchy.l2caches.ReadSharedReq.avgMissLatency::processor.switch.core.data 40733.361775                       # average ReadSharedReq miss latency ((Tick/Count))
board.cache_hierarchy.l2caches.ReadSharedReq.avgMissLatency::total 40963.175261                       # average ReadSharedReq miss latency ((Tick/Count))
board.cache_hierarchy.l2caches.ReadSharedReq.mshrMisses::cache_hierarchy.l1dcaches.prefetcher         2866                       # number of ReadSharedReq MSHR misses (Count)
board.cache_hierarchy.l2caches.ReadSharedReq.mshrMisses::processor.switch.core.data       241432                       # number of ReadSharedReq MSHR misses (Count)
board.cache_hierarchy.l2caches.ReadSharedReq.mshrMisses::total       244298                       # number of ReadSharedReq MSHR misses (Count)
board.cache_hierarchy.l2caches.ReadSharedReq.mshrMissLatency::cache_hierarchy.l1dcaches.prefetcher    172168290                       # number of ReadSharedReq MSHR miss ticks (Tick)
board.cache_hierarchy.l2caches.ReadSharedReq.mshrMissLatency::processor.switch.core.data   9773979000                       # number of ReadSharedReq MSHR miss ticks (Tick)
board.cache_hierarchy.l2caches.ReadSharedReq.mshrMissLatency::total   9946147290                       # number of ReadSharedReq MSHR miss ticks (Tick)
board.cache_hierarchy.l2caches.ReadSharedReq.mshrMissRate::cache_hierarchy.l1dcaches.prefetcher     0.158799                       # mshr miss rate for ReadSharedReq accesses (Ratio)
board.cache_hierarchy.l2caches.ReadSharedReq.mshrMissRate::processor.switch.core.data     0.176503                       # mshr miss rate for ReadSharedReq accesses (Ratio)
board.cache_hierarchy.l2caches.ReadSharedReq.mshrMissRate::total     0.176273                       # mshr miss rate for ReadSharedReq accesses (Ratio)
board.cache_hierarchy.l2caches.ReadSharedReq.avgMshrMissLatency::cache_hierarchy.l1dcaches.prefetcher 60072.676204                       # average ReadSharedReq mshr miss latency ((Tick/Count))
board.cache_hierarchy.l2caches.ReadSharedReq.avgMshrMissLatency::processor.switch.core.data 40483.361775                       # average ReadSharedReq mshr miss latency ((Tick/Count))
board.cache_hierarchy.l2caches.ReadSharedReq.avgMshrMissLatency::total 40713.175261                       # average ReadSharedReq mshr miss latency ((Tick/Count))
board.cache_hierarchy.l2caches.UpgradeReq.hits::processor.switch.core.data        64665                       # number of UpgradeReq hits (Count)
board.cache_hierarchy.l2caches.UpgradeReq.hits::total        64665                       # number of UpgradeReq hits (Count)
board.cache_hierarchy.l2caches.UpgradeReq.accesses::processor.switch.core.data        64665                       # number of UpgradeReq accesses(hits+misses) (Count)
board.cache_hierarchy.l2caches.UpgradeReq.accesses::total        64665                       # number of UpgradeReq accesses(hits+misses) (Count)
board.cache_hierarchy.l2caches.WritebackDirty.hits::writebacks       699809                       # number of WritebackDirty hits (Count)
board.cache_hierarchy.l2caches.WritebackDirty.hits::total       699809                       # number of WritebackDirty hits (Count)
board.cache_hierarchy.l2caches.WritebackDirty.accesses::writebacks       699809                       # number of WritebackDirty accesses(hits+misses) (Count)
board.cache_hierarchy.l2caches.WritebackDirty.accesses::total       699809                       # number of WritebackDirty accesses(hits+misses) (Count)
board.cache_hierarchy.l2caches.power_state.pwrStateResidencyTicks::UNDEFINED  52164901000                       # Cumulative time (in ticks) in various power states (Tick)
board.cache_hierarchy.l2caches.tags.tagsInUse 16363.622200                       # Average ticks per tags in use ((Tick/Count))
board.cache_hierarchy.l2caches.tags.totalRefs      2789071                       # Total number of references to valid blocks. (Count)
board.cache_hierarchy.l2caches.tags.sampledRefs       244459                       # Sample count of references to valid blocks. (Count)
board.cache_hierarchy.l2caches.tags.avgRefs    11.409157                       # Average number of references to valid blocks. ((Count/Count))
board.cache_hierarchy.l2caches.tags.warmupTick            0                       # The tick when the warmup percentage was hit. (Tick)
board.cache_hierarchy.l2caches.tags.occupancies::writebacks     3.278815                       # Average occupied blocks per tick, per requestor ((Count/Tick))
board.cache_hierarchy.l2caches.tags.occupancies::cache_hierarchy.l1dcaches.prefetcher   584.603823                       # Average occupied blocks per tick, per requestor ((Count/Tick))
board.cache_hierarchy.l2caches.tags.occupancies::processor.switch.core.data 15775.739562                       # Average occupied blocks per tick, per requestor ((Count/Tick))
board.cache_hierarchy.l2caches.tags.avgOccs::writebacks     0.000200                       # Average percentage of cache occupancy ((Ratio/Tick))
board.cache_hierarchy.l2caches.tags.avgOccs::cache_hierarchy.l1dcaches.prefetcher     0.035681                       # Average percentage of cache occupancy ((Ratio/Tick))
board.cache_hierarchy.l2caches.tags.avgOccs::processor.switch.core.data     0.962875                       # Average percentage of cache occupancy ((Ratio/Tick))
board.cache_hierarchy.l2caches.tags.avgOccs::total     0.998756                       # Average percentage of cache occupancy ((Ratio/Tick))
board.cache_hierarchy.l2caches.tags.occupanciesTaskId::1022          314                       # Occupied blocks per task id (Count)
board.cache_hierarchy.l2caches.tags.occupanciesTaskId::1024        16070                       # Occupied blocks per task id (Count)
board.cache_hierarchy.l2caches.tags.ageTaskId_1022::1            1                       # Occupied blocks per task id, per block age (Count)
board.cache_hierarchy.l2caches.tags.ageTaskId_1022::2            5                       # Occupied blocks per task id, per block age (Count)
board.cache_hierarchy.l2caches.tags.ageTaskId_1022::3           36                       # Occupied blocks per task id, per block age (Count)
board.cache_hierarchy.l2caches.tags.ageTaskId_1022::4          272                       # Occupied blocks per task id, per block age (Count)
board.cache_hierarchy.l2caches.tags.ageTaskId_1024::0           72                       # Occupied blocks per task id, per block age (Count)
board.cache_hierarchy.l2caches.tags.ageTaskId_1024::1          433                       # Occupied blocks per task id, per block age (Count)
board.cache_hierarchy.l2caches.tags.ageTaskId_1024::2         1955                       # Occupied blocks per task id, per block age (Count)
board.cache_hierarchy.l2caches.tags.ageTaskId_1024::3         8739                       # Occupied blocks per task id, per block age (Count)
board.cache_hierarchy.l2caches.tags.ageTaskId_1024::4         4871                       # Occupied blocks per task id, per block age (Count)
board.cache_hierarchy.l2caches.tags.ratioOccsTaskId::1022     0.019165                       # Ratio of occupied blocks and all blocks, per task id (Ratio)
board.cache_hierarchy.l2caches.tags.ratioOccsTaskId::1024     0.980835                       # Ratio of occupied blocks and all blocks, per task id (Ratio)
board.cache_hierarchy.l2caches.tags.tagAccesses     46273462                       # Number of tag accesses (Count)
board.cache_hierarchy.l2caches.tags.dataAccesses     46273462                       # Number of data accesses (Count)
board.cache_hierarchy.l2caches.tags.power_state.pwrStateResidencyTicks::UNDEFINED  52164901000                       # Cumulative time (in ticks) in various power states (Tick)
board.cache_hierarchy.llcXbar.transDist::ReadResp       244298                       # Transaction distribution (Count)
board.cache_hierarchy.llcXbar.transDist::WritebackDirty       189705                       # Transaction distribution (Count)
board.cache_hierarchy.llcXbar.transDist::CleanEvict        92455                       # Transaction distribution (Count)
board.cache_hierarchy.llcXbar.transDist::ReadExReq          524                       # Transaction distribution (Count)
board.cache_hierarchy.llcXbar.transDist::ReadExResp          524                       # Transaction distribution (Count)
board.cache_hierarchy.llcXbar.transDist::ReadSharedReq       244298                       # Transaction distribution (Count)
board.cache_hierarchy.llcXbar.pktCount_board.cache_hierarchy.l2caches.mem_side_port::board.cache_hierarchy.llcache.cpu_side_port       734103                       # Packet count per connected requestor and responder (Count)
board.cache_hierarchy.llcXbar.pktSize_board.cache_hierarchy.l2caches.mem_side_port::board.cache_hierarchy.llcache.cpu_side_port     26562496                       # Cumulative packet size per connected requestor and responder (Byte)
board.cache_hierarchy.llcXbar.snoops            37701                       # Total snoops (Count)
board.cache_hierarchy.llcXbar.snoopTraffic      1247232                       # Total snoop traffic (Byte)
board.cache_hierarchy.llcXbar.snoopFanout::samples       282523                       # Request fanout histogram (Count)
board.cache_hierarchy.llcXbar.snoopFanout::mean     0.000145                       # Request fanout histogram (Count)
board.cache_hierarchy.llcXbar.snoopFanout::stdev     0.012046                       # Request fanout histogram (Count)
board.cache_hierarchy.llcXbar.snoopFanout::underflows            0      0.00%      0.00% # Request fanout histogram (Count)
board.cache_hierarchy.llcXbar.snoopFanout::0       282482     99.99%     99.99% # Request fanout histogram (Count)
board.cache_hierarchy.llcXbar.snoopFanout::1           41      0.01%    100.00% # Request fanout histogram (Count)
board.cache_hierarchy.llcXbar.snoopFanout::overflows            0      0.00%    100.00% # Request fanout histogram (Count)
board.cache_hierarchy.llcXbar.snoopFanout::min_value            0                       # Request fanout histogram (Count)
board.cache_hierarchy.llcXbar.snoopFanout::max_value            1                       # Request fanout histogram (Count)
board.cache_hierarchy.llcXbar.snoopFanout::total       282523                       # Request fanout histogram (Count)
board.cache_hierarchy.llcXbar.power_state.pwrStateResidencyTicks::UNDEFINED  52164901000                       # Cumulative time (in ticks) in various power states (Tick)
board.cache_hierarchy.llcXbar.reqLayer0.occupancy    164875458                       # Layer occupancy (ticks) (Tick)
board.cache_hierarchy.llcXbar.reqLayer0.utilization          0.0                       # Layer utilization (Ratio)
board.cache_hierarchy.llcXbar.respLayer0.occupancy    122411000                       # Layer occupancy (ticks) (Tick)
board.cache_hierarchy.llcXbar.respLayer0.utilization          0.0                       # Layer utilization (Ratio)
board.cache_hierarchy.llcXbar.snoop_filter.totRequests       489281                       # Total number of requests made to the snoop filter. (Count)
board.cache_hierarchy.llcXbar.snoop_filter.hitSingleRequests       244459                       # Number of requests hitting in the snoop filter with a single holder of the requested data. (Count)
board.cache_hierarchy.llcXbar.snoop_filter.hitMultiRequests            0                       # Number of requests hitting in the snoop filter with multiple (>1) holders of the requested data. (Count)
board.cache_hierarchy.llcXbar.snoop_filter.totSnoops           41                       # Total number of snoops made to the snoop filter. (Count)
board.cache_hierarchy.llcXbar.snoop_filter.hitSingleSnoops           41                       # Number of snoops hitting in the snoop filter with a single holder of the requested data. (Count)
board.cache_hierarchy.llcXbar.snoop_filter.hitMultiSnoops            0                       # Number of snoops hitting in the snoop filter with multiple (>1) holders of the requested data. (Count)
board.cache_hierarchy.llcache.demandHits::cache_hierarchy.l1dcaches.prefetcher          637                       # number of demand (read+write) hits (Count)
board.cache_hierarchy.llcache.demandHits::processor.switch.core.data       139112                       # number of demand (read+write) hits (Count)
board.cache_hierarchy.llcache.demandHits::total       139749                       # number of demand (read+write) hits (Count)
board.cache_hierarchy.llcache.overallHits::cache_hierarchy.l1dcaches.prefetcher          637                       # number of overall hits (Count)
board.cache_hierarchy.llcache.overallHits::processor.switch.core.data       139112                       # number of overall hits (Count)
board.cache_hierarchy.llcache.overallHits::total       139749                       # number of overall hits (Count)
board.cache_hierarchy.llcache.demandMisses::cache_hierarchy.l1dcaches.prefetcher         2229                       # number of demand (read+write) misses (Count)
board.cache_hierarchy.llcache.demandMisses::processor.switch.core.data       102844                       # number of demand (read+write) misses (Count)
board.cache_hierarchy.llcache.demandMisses::total       105073                       # number of demand (read+write) misses (Count)
board.cache_hierarchy.llcache.overallMisses::cache_hierarchy.l1dcaches.prefetcher         2229                       # number of overall misses (Count)
board.cache_hierarchy.llcache.overallMisses::processor.switch.core.data       102844                       # number of overall misses (Count)
board.cache_hierarchy.llcache.overallMisses::total       105073                       # number of overall misses (Count)
board.cache_hierarchy.llcache.demandMissLatency::cache_hierarchy.l1dcaches.prefetcher    153019420                       # number of demand (read+write) miss ticks (Tick)
board.cache_hierarchy.llcache.demandMissLatency::processor.switch.core.data   7215223750                       # number of demand (read+write) miss ticks (Tick)
board.cache_hierarchy.llcache.demandMissLatency::total   7368243170                       # number of demand (read+write) miss ticks (Tick)
board.cache_hierarchy.llcache.overallMissLatency::cache_hierarchy.l1dcaches.prefetcher    153019420                       # number of overall miss ticks (Tick)
board.cache_hierarchy.llcache.overallMissLatency::processor.switch.core.data   7215223750                       # number of overall miss ticks (Tick)
board.cache_hierarchy.llcache.overallMissLatency::total   7368243170                       # number of overall miss ticks (Tick)
board.cache_hierarchy.llcache.demandAccesses::cache_hierarchy.l1dcaches.prefetcher         2866                       # number of demand (read+write) accesses (Count)
board.cache_hierarchy.llcache.demandAccesses::processor.switch.core.data       241956                       # number of demand (read+write) accesses (Count)
board.cache_hierarchy.llcache.demandAccesses::total       244822                       # number of demand (read+write) accesses (Count)
board.cache_hierarchy.llcache.overallAccesses::cache_hierarchy.l1dcaches.prefetcher         2866                       # number of overall (read+write) accesses (Count)
board.cache_hierarchy.llcache.overallAccesses::processor.switch.core.data       241956                       # number of overall (read+write) accesses (Count)
board.cache_hierarchy.llcache.overallAccesses::total       244822                       # number of overall (read+write) accesses (Count)
board.cache_hierarchy.llcache.demandMissRate::cache_hierarchy.l1dcaches.prefetcher     0.777739                       # miss rate for demand accesses (Ratio)
board.cache_hierarchy.llcache.demandMissRate::processor.switch.core.data     0.425052                       # miss rate for demand accesses (Ratio)
board.cache_hierarchy.llcache.demandMissRate::total     0.429181                       # miss rate for demand accesses (Ratio)
board.cache_hierarchy.llcache.overallMissRate::cache_hierarchy.l1dcaches.prefetcher     0.777739                       # miss rate for overall accesses (Ratio)
board.cache_hierarchy.llcache.overallMissRate::processor.switch.core.data     0.425052                       # miss rate for overall accesses (Ratio)
board.cache_hierarchy.llcache.overallMissRate::total     0.429181                       # miss rate for overall accesses (Ratio)
board.cache_hierarchy.llcache.demandAvgMissLatency::cache_hierarchy.l1dcaches.prefetcher 68649.358457                       # average overall miss latency in ticks ((Tick/Count))
board.cache_hierarchy.llcache.demandAvgMissLatency::processor.switch.core.data 70156.973183                       # average overall miss latency in ticks ((Tick/Count))
board.cache_hierarchy.llcache.demandAvgMissLatency::total 70124.990911                       # average overall miss latency in ticks ((Tick/Count))
board.cache_hierarchy.llcache.overallAvgMissLatency::cache_hierarchy.l1dcaches.prefetcher 68649.358457                       # average overall miss latency ((Tick/Count))
board.cache_hierarchy.llcache.overallAvgMissLatency::processor.switch.core.data 70156.973183                       # average overall miss latency ((Tick/Count))
board.cache_hierarchy.llcache.overallAvgMissLatency::total 70124.990911                       # average overall miss latency ((Tick/Count))
board.cache_hierarchy.llcache.blockedCycles::no_mshrs            0                       # number of cycles access was blocked (Cycle)
board.cache_hierarchy.llcache.blockedCycles::no_wbuffers            0                       # number of cycles access was blocked (Cycle)
board.cache_hierarchy.llcache.blockedCycles::no_targets            0                       # number of cycles access was blocked (Cycle)
board.cache_hierarchy.llcache.blockedCauses::no_mshrs            0                       # number of times access was blocked (Count)
board.cache_hierarchy.llcache.blockedCauses::no_wbuffers            0                       # number of times access was blocked (Count)
board.cache_hierarchy.llcache.blockedCauses::no_targets            0                       # number of times access was blocked (Count)
board.cache_hierarchy.llcache.avgBlocked::no_mshrs          nan                       # average number of cycles each access was blocked ((Cycle/Count))
board.cache_hierarchy.llcache.avgBlocked::no_wbuffers          nan                       # average number of cycles each access was blocked ((Cycle/Count))
board.cache_hierarchy.llcache.avgBlocked::no_targets          nan                       # average number of cycles each access was blocked ((Cycle/Count))
board.cache_hierarchy.llcache.writebacks::writebacks        19488                       # number of writebacks (Count)
board.cache_hierarchy.llcache.writebacks::total        19488                       # number of writebacks (Count)
board.cache_hierarchy.llcache.demandMshrMisses::cache_hierarchy.l1dcaches.prefetcher         2229                       # number of demand (read+write) MSHR misses (Count)
board.cache_hierarchy.llcache.demandMshrMisses::processor.switch.core.data       102844                       # number of demand (read+write) MSHR misses (Count)
board.cache_hierarchy.llcache.demandMshrMisses::total       105073                       # number of demand (read+write) MSHR misses (Count)
board.cache_hierarchy.llcache.overallMshrMisses::cache_hierarchy.l1dcaches.prefetcher         2229                       # number of overall MSHR misses (Count)
board.cache_hierarchy.llcache.overallMshrMisses::processor.switch.core.data       102844                       # number of overall MSHR misses (Count)
board.cache_hierarchy.llcache.overallMshrMisses::total       105073                       # number of overall MSHR misses (Count)
board.cache_hierarchy.llcache.demandMshrMissLatency::cache_hierarchy.l1dcaches.prefetcher    152462170                       # number of demand (read+write) MSHR miss ticks (Tick)
board.cache_hierarchy.llcache.demandMshrMissLatency::processor.switch.core.data   7189512750                       # number of demand (read+write) MSHR miss ticks (Tick)
board.cache_hierarchy.llcache.demandMshrMissLatency::total   7341974920                       # number of demand (read+write) MSHR miss ticks (Tick)
board.cache_hierarchy.llcache.overallMshrMissLatency::cache_hierarchy.l1dcaches.prefetcher    152462170                       # number of overall MSHR miss ticks (Tick)
board.cache_hierarchy.llcache.overallMshrMissLatency::processor.switch.core.data   7189512750                       # number of overall MSHR miss ticks (Tick)
board.cache_hierarchy.llcache.overallMshrMissLatency::total   7341974920                       # number of overall MSHR miss ticks (Tick)
board.cache_hierarchy.llcache.demandMshrMissRate::cache_hierarchy.l1dcaches.prefetcher     0.777739                       # mshr miss ratio for demand accesses (Ratio)
board.cache_hierarchy.llcache.demandMshrMissRate::processor.switch.core.data     0.425052                       # mshr miss ratio for demand accesses (Ratio)
board.cache_hierarchy.llcache.demandMshrMissRate::total     0.429181                       # mshr miss ratio for demand accesses (Ratio)
board.cache_hierarchy.llcache.overallMshrMissRate::cache_hierarchy.l1dcaches.prefetcher     0.777739                       # mshr miss ratio for overall accesses (Ratio)
board.cache_hierarchy.llcache.overallMshrMissRate::processor.switch.core.data     0.425052                       # mshr miss ratio for overall accesses (Ratio)
board.cache_hierarchy.llcache.overallMshrMissRate::total     0.429181                       # mshr miss ratio for overall accesses (Ratio)
board.cache_hierarchy.llcache.demandAvgMshrMissLatency::cache_hierarchy.l1dcaches.prefetcher 68399.358457                       # average overall mshr miss latency ((Tick/Count))
board.cache_hierarchy.llcache.demandAvgMshrMissLatency::processor.switch.core.data 69906.973183                       # average overall mshr miss latency ((Tick/Count))
board.cache_hierarchy.llcache.demandAvgMshrMissLatency::total 69874.990911                       # average overall mshr miss latency ((Tick/Count))
board.cache_hierarchy.llcache.overallAvgMshrMissLatency::cache_hierarchy.l1dcaches.prefetcher 68399.358457                       # average overall mshr miss latency ((Tick/Count))
board.cache_hierarchy.llcache.overallAvgMshrMissLatency::processor.switch.core.data 69906.973183                       # average overall mshr miss latency ((Tick/Count))
board.cache_hierarchy.llcache.overallAvgMshrMissLatency::total 69874.990911                       # average overall mshr miss latency ((Tick/Count))
board.cache_hierarchy.llcache.replacements        37701                       # number of replacements (Count)
[...]
board.processor.switch.core.fetch.ftNumber::overflows            0      0.00%    100.00% # Number of fetch targets processed each cycle (Total) (Count)
board.processor.switch.core.fetch.ftNumber::min_value            0                       # Number of fetch targets processed each cycle (Total) (Count)
board.processor.switch.core.fetch.ftNumber::max_value            0                       # Number of fetch targets processed each cycle (Total) (Count)
board.processor.switch.core.fetch.ftNumber::total     83697515                       # Number of fetch targets processed each cycle (Total) (Count)
board.processor.switch.core.fetchStats0.numInsts    143479866                       # Number of instructions fetched (thread level) (Count)
board.processor.switch.core.fetchStats0.numOps            0                       # Number of ops (including micro ops) fetched (thread level) (Count)
board.processor.switch.core.fetchStats0.fetchRate     0.629853                       # Number of inst fetches per cycle ((Count/Cycle))
board.processor.switch.core.fetchStats0.numBranches     22162133                       # Number of branches fetched (Count)
board.processor.switch.core.fetchStats0.branchRate     0.097288                       # Number of branch fetches per cycle (Ratio)
board.processor.switch.core.fetchStats0.icacheStallCycles    139611364                       # ICache total stall cycles (Cycle)
board.processor.switch.core.fetchStats0.numFetchSuspends            0                       # Number of times Execute suspended instruction fetching (Count)
board.processor.switch.core.ftq.inserts             0                       # The number of FTQ insertions (Count)
board.processor.switch.core.ftq.removals            0                       # The number of FTQ removals. Not including squashes (Count)
board.processor.switch.core.ftq.squashes            0                       # The number of FTQ squashes (Count)
board.processor.switch.core.ftq.locks               0                       # The number of times the FTQ got locked. (Count)
board.processor.switch.core.ftq.occupancy::samples            0                       # Distribution of the FTQ occupation. (Count)
board.processor.switch.core.ftq.occupancy::mean          nan                       # Distribution of the FTQ occupation. (Count)
board.processor.switch.core.ftq.occupancy::stdev          nan                       # Distribution of the FTQ occupation. (Count)
board.processor.switch.core.ftq.occupancy::underflows            0                       # Distribution of the FTQ occupation. (Count)
board.processor.switch.core.ftq.occupancy::0-3            0                       # Distribution of the FTQ occupation. (Count)
board.processor.switch.core.ftq.occupancy::4-7            0                       # Distribution of the FTQ occupation. (Count)
board.processor.switch.core.ftq.occupancy::8            0                       # Distribution of the FTQ occupation. (Count)
board.processor.switch.core.ftq.occupancy::overflows            0                       # Distribution of the FTQ occupation. (Count)
board.processor.switch.core.ftq.occupancy::min_value            0                       # Distribution of the FTQ occupation. (Count)
board.processor.switch.core.ftq.occupancy::max_value            0                       # Distribution of the FTQ occupation. (Count)
board.processor.switch.core.ftq.occupancy::total            0                       # Distribution of the FTQ occupation. (Count)
board.processor.switch.core.iew.dispatchStatus::running    210193879     92.27%     92.27% # Number of cycles dispatch is running (Cycle)
board.processor.switch.core.iew.dispatchStatus::blocked     13115000      5.76%     98.03% # Number of cycles dispatch is blocked (Cycle)
board.processor.switch.core.iew.dispatchStatus::squashing      4490162      1.97%    100.00% # Number of cycles dispatch is squashing (Cycle)
board.processor.switch.core.iew.dispatchedInsts    165668563                       # Number of instructions dispatched to IQ (Count)
board.processor.switch.core.iew.dispSquashedInsts     28657991                       # Number of squashed instructions skipped by dispatch (Count)
board.processor.switch.core.iew.dispLoadInsts     30444242                       # Number of dispatched load instructions (Count)
board.processor.switch.core.iew.dispStoreInsts     10232006                       # Number of dispatched store instructions (Count)
board.processor.switch.core.iew.dispNonSpecInsts            0                       # Number of dispatched non-speculative instructions (Count)
board.processor.switch.core.iew.iqFullEvents            0                       # Number of times the IQ has become full, causing a stall (Count)
board.processor.switch.core.iew.lsqFullEvents            0                       # Number of times the LSQ has become full, causing a stall (Count)
board.processor.switch.core.iew.memOrderViolationEvents            0                       # Number of memory order violations (Count)
board.processor.switch.core.iew.predictedTakenIncorrect       714759                       # Number of branches that were predicted taken incorrectly (Count)
board.processor.switch.core.iew.predictedNotTakenIncorrect      4259292                       # Number of branches that were predicted not taken incorrectly (Count)
board.processor.switch.core.iew.branchMispredicts      4974051                       # Number of branch mispredicts detected at execute (Count)
board.processor.switch.core.iew.instsToCommit    150689018                       # Cumulative count of insts sent to commit (Count)
board.processor.switch.core.iew.writebackCount    149583771                       # Cumulative count of insts written-back (Count)
board.processor.switch.core.iew.producerInst    109062243                       # Number of instructions producing a value (Count)
board.processor.switch.core.iew.consumerInst    133742831                       # Number of instructions consuming a value (Count)
board.processor.switch.core.iew.wbRate       0.656648                       # Insts written-back per cycle ((Count/Cycle))
board.processor.switch.core.iew.wbFanout     0.815462                       # Average fanout of values written-back ((Count/Count))
board.processor.switch.core.lsq0.forwLoads        18866                       # Number of loads that had data forwarded from stores (Count)
board.processor.switch.core.lsq0.squashedLoads     16800616                       # Number of loads squashed (Count)
board.processor.switch.core.lsq0.ignoredResponses           56                       # Number of memory responses ignored because the instruction is squashed (Count)
board.processor.switch.core.lsq0.memOrderViolation            0                       # Number of memory ordering violations (Count)
board.processor.switch.core.lsq0.squashedStores      8252798                       # Number of stores squashed (Count)
board.processor.switch.core.lsq0.rescheduledLoads            0                       # Number of loads that were rescheduled (Count)
board.processor.switch.core.lsq0.blockedByCache            0                       # Number of times an access to memory failed due to the cache being blocked (Count)
board.processor.switch.core.lsq0.loadToUse::samples     13643619                       # Distribution of cycle latency between the first time a load is issued and its completion (Cycle)
board.processor.switch.core.lsq0.loadToUse::mean     8.395527                       # Distribution of cycle latency between the first time a load is issued and its completion (Cycle)
board.processor.switch.core.lsq0.loadToUse::stdev    27.886393                       # Distribution of cycle latency between the first time a load is issued and its completion (Cycle)
board.processor.switch.core.lsq0.loadToUse::0-9     12588953     92.27%     92.27% # Distribution of cycle latency between the first time a load is issued and its completion (Cycle)
board.processor.switch.core.lsq0.loadToUse::10-19        23014      0.17%     92.44% # Distribution of cycle latency between the first time a load is issued and its completion (Cycle)
board.processor.switch.core.lsq0.loadToUse::20-29       846003      6.20%     98.64% # Distribution of cycle latency between the first time a load is issued and its completion (Cycle)
board.processor.switch.core.lsq0.loadToUse::30-39         1853      0.01%     98.65% # Distribution of cycle latency between the first time a load is issued and its completion (Cycle)
board.processor.switch.core.lsq0.loadToUse::40-49        21829      0.16%     98.81% # Distribution of cycle latency between the first time a load is issued and its completion (Cycle)
board.processor.switch.core.lsq0.loadToUse::50-59          607      0.00%     98.82% # Distribution of cycle latency between the first time a load is issued and its completion (Cycle)
board.processor.switch.core.lsq0.loadToUse::60-69         1220      0.01%     98.83% # Distribution of cycle latency between the first time a load is issued and its completion (Cycle)
board.processor.switch.core.lsq0.loadToUse::70-79        67336      0.49%     99.32% # Distribution of cycle latency between the first time a load is issued and its completion (Cycle)
board.processor.switch.core.lsq0.loadToUse::80-89          326      0.00%     99.32% # Distribution of cycle latency between the first time a load is issued and its completion (Cycle)
board.processor.switch.core.lsq0.loadToUse::90-99          213      0.00%     99.32% # Distribution of cycle latency between the first time a load is issued and its completion (Cycle)
board.processor.switch.core.lsq0.loadToUse::100-109          248      0.00%     99.33% # Distribution of cycle latency between the first time a load is issued and its completion (Cycle)
board.processor.switch.core.lsq0.loadToUse::110-119          146      0.00%     99.33% # Distribution of cycle latency between the first time a load is issued and its completion (Cycle)
board.processor.switch.core.lsq0.loadToUse::120-129          526      0.00%     99.33% # Distribution of cycle latency between the first time a load is issued and its completion (Cycle)
board.processor.switch.core.lsq0.loadToUse::130-139          738      0.01%     99.34% # Distribution of cycle latency between the first time a load is issued and its completion (Cycle)
board.processor.switch.core.lsq0.loadToUse::140-149          545      0.00%     99.34% # Distribution of cycle latency between the first time a load is issued and its completion (Cycle)
board.processor.switch.core.lsq0.loadToUse::150-159          734      0.01%     99.35% # Distribution of cycle latency between the first time a load is issued and its completion (Cycle)
board.processor.switch.core.lsq0.loadToUse::160-169          346      0.00%     99.35% # Distribution of cycle latency between the first time a load is issued and its completion (Cycle)
board.processor.switch.core.lsq0.loadToUse::170-179          799      0.01%     99.35% # Distribution of cycle latency between the first time a load is issued and its completion (Cycle)
board.processor.switch.core.lsq0.loadToUse::180-189         1575      0.01%     99.37% # Distribution of cycle latency between the first time a load is issued and its completion (Cycle)
board.processor.switch.core.lsq0.loadToUse::190-199         2159      0.02%     99.38% # Distribution of cycle latency between the first time a load is issued and its completion (Cycle)
board.processor.switch.core.lsq0.loadToUse::200-209         2411      0.02%     99.40% # Distribution of cycle latency between the first time a load is issued and its completion (Cycle)
board.processor.switch.core.lsq0.loadToUse::210-219          850      0.01%     99.40% # Distribution of cycle latency between the first time a load is issued and its completion (Cycle)
board.processor.switch.core.lsq0.loadToUse::220-229         1632      0.01%     99.42% # Distribution of cycle latency between the first time a load is issued and its completion (Cycle)
board.processor.switch.core.lsq0.loadToUse::230-239        21107      0.15%     99.57% # Distribution of cycle latency between the first time a load is issued and its completion (Cycle)
board.processor.switch.core.lsq0.loadToUse::240-249         3229      0.02%     99.60% # Distribution of cycle latency between the first time a load is issued and its completion (Cycle)
board.processor.switch.core.lsq0.loadToUse::250-259         2575      0.02%     99.61% # Distribution of cycle latency between the first time a load is issued and its completion (Cycle)
board.processor.switch.core.lsq0.loadToUse::260-269         5402      0.04%     99.65% # Distribution of cycle latency between the first time a load is issued and its completion (Cycle)
board.processor.switch.core.lsq0.loadToUse::270-279          667      0.00%     99.66% # Distribution of cycle latency between the first time a load is issued and its completion (Cycle)
board.processor.switch.core.lsq0.loadToUse::280-289        38037      0.28%     99.94% # Distribution of cycle latency between the first time a load is issued and its completion (Cycle)
board.processor.switch.core.lsq0.loadToUse::290-299          642      0.00%     99.94% # Distribution of cycle latency between the first time a load is issued and its completion (Cycle)
board.processor.switch.core.lsq0.loadToUse::overflows         7897      0.06%    100.00% # Distribution of cycle latency between the first time a load is issued and its completion (Cycle)
board.processor.switch.core.lsq0.loadToUse::min_value            2                       # Distribution of cycle latency between the first time a load is issued and its completion (Cycle)
board.processor.switch.core.lsq0.loadToUse::max_value         1926                       # Distribution of cycle latency between the first time a load is issued and its completion (Cycle)
board.processor.switch.core.lsq0.loadToUse::total     13643619                       # Distribution of cycle latency between the first time a load is issued and its completion (Cycle)
board.processor.switch.core.lsq0.addedLoadsAndStores     40676248                       # Number of loads and stores written to the Load Store Queue (Count)
board.processor.switch.core.lsq0.lqAvgOccupancy         0.04                       # Average LQ Occupancy (UsedSlots/TotalSlots) (Ratio)
board.processor.switch.core.lsq0.sqAvgOccupancy         0.02                       # Average SQ Occupancy (UsedSlots/TotalSlots) (Ratio)
board.processor.switch.core.mmu.dtb.rdAccesses     29057025                       # TLB accesses on read requests (Count)
board.processor.switch.core.mmu.dtb.wrAccesses      8108743                       # TLB accesses on write requests (Count)
board.processor.switch.core.mmu.dtb.exAccesses            0                       # TLB accesses on execute (instr) requests (Count)
board.processor.switch.core.mmu.dtb.rdMisses      1043386                       # TLB misses on read requests (Count)
board.processor.switch.core.mmu.dtb.wrMisses           18                       # TLB misses on write requests (Count)
board.processor.switch.core.mmu.dtb.exMisses            0                       # TLB misses on execute (instr) requests (Count)
board.processor.switch.core.mmu.dtb.walker.power_state.pwrStateResidencyTicks::UNDEFINED  56949760250                       # Cumulative time (in ticks) in various power states (Tick)
board.processor.switch.core.mmu.itb.rdAccesses            0                       # TLB accesses on read requests (Count)
board.processor.switch.core.mmu.itb.wrAccesses            0                       # TLB accesses on write requests (Count)
board.processor.switch.core.mmu.itb.exAccesses     46715344                       # TLB accesses on execute (instr) requests (Count)
board.processor.switch.core.mmu.itb.rdMisses            0                       # TLB misses on read requests (Count)
board.processor.switch.core.mmu.itb.wrMisses            0                       # TLB misses on write requests (Count)
board.processor.switch.core.mmu.itb.exMisses            0                       # TLB misses on execute (instr) requests (Count)
board.processor.switch.core.mmu.itb.walker.power_state.pwrStateResidencyTicks::UNDEFINED  56949760250                       # Cumulative time (in ticks) in various power states (Tick)
board.processor.switch.core.power_state.pwrStateResidencyTicks::OFF  56949760250                       # Cumulative time (in ticks) in various power states (Tick)
board.processor.switch.core.rename.status::Running     67672914     29.71%     29.71% # Number of cycles rename is running (Cycle)
board.processor.switch.core.rename.status::Idle    136742507     60.03%     89.73% # Number of cycles rename is idle (Cycle)
board.processor.switch.core.rename.status::Squashing      4490162      1.97%     91.71% # Number of cycles rename is squashing (Cycle)
board.processor.switch.core.rename.status::Blocked     18659358      8.19%     99.90% # Number of cycles rename is blocking (Cycle)
board.processor.switch.core.rename.status::Unblocking       234100      0.10%    100.00% # Number of cycles rename is unblocking (Cycle)
board.processor.switch.core.rename.renamedInsts    213308124                       # Number of instructions processed by rename (Count)
board.processor.switch.core.rename.ROBFullEvents       198115                       # Number of times rename has blocked due to ROB full (Count)
board.processor.switch.core.rename.IQFullEvents          714                       # Number of times rename has blocked due to IQ full (Count)
board.processor.switch.core.rename.fullRegistersEvents        25463                       # Number of times there has been no free registers (Count)
board.processor.switch.core.rename.renamedOperands    346796855                       # Number of destination operands rename has renamed (Count)
board.processor.switch.core.rename.lookups    723407540                       # Number of register rename lookups that rename has made (Count)
board.processor.switch.core.rename.intLookups    280064655                       # Number of integer rename lookups (Count)
board.processor.switch.core.rename.committedMaps    144186489                       # Number of HB maps that are committed (Count)
board.processor.switch.core.rename.undoneMaps    202610305                       # Number of HB maps that are undone due to squashing (Count)
board.processor.switch.core.rename.serializing            0                       # count of serializing insts renamed (Count)
board.processor.switch.core.rename.tempSerializing            0                       # count of temporary serializing insts renamed (Count)
board.processor.switch.core.rename.skidInsts       493149                       # count of insts added to the skid buffer (Count)
board.processor.switch.core.rename.intReturned     64543428                       # count of registers freed and written back to integer free list (Count)
board.processor.switch.core.rob.reads       413871100                       # The number of ROB reads (Count)
board.processor.switch.core.rob.writes      427405131                       # The number of ROB writes (Count)
board.processor.switch.core.thread_0.numInsts     50896393                       # Number of Instructions committed (Count)
board.processor.switch.core.thread_0.numOps     84754970                       # Number of Ops committed (Count)
board.processor.switch.core.thread_0.numMemRefs     15622824                       # Number of Memory References (Count)
board.workload.inst.arm                             0                       # number of arm instructions executed (Count)
board.workload.inst.quiesce                         0                       # number of quiesce instructions executed (Count)

---------- End Simulation Statistics   ----------
