
---------- Begin Simulation Statistics ----------
simSeconds                                   0.039536                       # Number of seconds simulated (Second)
simTicks                                  39535903250                       # Number of ticks simulated (Tick)
finalTick                                9136358996000                       # Number of ticks from beginning of simulation (restored from checkpoints and never reset) (Tick)
simFreq                                  1000000000000                       # The number of ticks per simulated second ((Tick/Second))
hostSeconds                                    481.15                       # Real time elapsed on the host (Second)
hostTickRate                                 82169409                       # The number of ticks simulated per host second (ticks/s) ((Tick/Second))
hostMemory                                    3427700                       # Number of bytes of host memory used (Byte)
simInsts                                     51521184                       # Number of instructions simulated (Count)
simOps                                       87183554                       # Number of ops (including micro ops) simulated (Count)
hostInstRate                                   107079                       # Simulator instruction rate (inst/s) ((Count/Second))
hostOpRate                                     181198                       # Simulator op (including micro ops) rate (op/s) ((Count/Second))
board.cache_hierarchy.dptw_caches.blockedCycles::no_mshrs            0                       # number of cycles access was blocked (Cycle)
board.cache_hierarchy.dptw_caches.blockedCycles::no_wbuffers            0                       # number of cycles access was blocked (Cycle)
board.cache_hierarchy.dptw_caches.blockedCycles::no_targets            0                       # number of cycles access was blocked (Cycle)
board.cache_hierarchy.dptw_caches.blockedCauses::no_mshrs            0                       # number of times access was blocked (Count)
board.cache_hierarchy.dptw_caches.blockedCauses::no_wbuffers            0                       # number of times access was blocked (Count)
board.cache_hierarchy.dptw_caches.blockedCauses::no_targets            0                       # number of times access was blocked (Count)
board.cache_hierarchy.dptw_caches.avgBlocked::no_mshrs          nan                       # average number of cycles each access was blocked ((Cycle/Count))
board.cache_hierarchy.dptw_caches.avgBlocked::no_wbuffers          nan                       # average number of cycles each access was blocked ((Cycle/Count))
board.cache_hierarchy.dptw_caches.avgBlocked::no_targets          nan                       # average number of cycles each access was blocked ((Cycle/Count))
board.cache_hierarchy.dptw_caches.replacements            0                       # number of replacements (Count)
board.cache_hierarchy.dptw_caches.power_state.pwrStateResidencyTicks::UNDEFINED  39535903250                       # Cumulative time (in ticks) in various power states (Tick)
board.cache_hierarchy.dptw_caches.tags.tagsInUse            0                       # Average ticks per tags in use ((Tick/Count))
board.cache_hierarchy.dptw_caches.tags.totalRefs            0                       # Total number of references to valid blocks. (Count)
board.cache_hierarchy.dptw_caches.tags.sampledRefs            0                       # Sample count of references to valid blocks. (Count)
board.cache_hierarchy.dptw_caches.tags.avgRefs          nan                       # Average number of references to valid blocks. ((Count/Count))
board.cache_hierarchy.dptw_caches.tags.warmupTick            0                       # The tick when the warmup percentage was hit. (Tick)
board.cache_hierarchy.dptw_caches.tags.tagAccesses            0                       # Number of tag accesses (Count)
board.cache_hierarchy.dptw_caches.tags.dataAccesses            0                       # Number of data accesses (Count)
board.cache_hierarchy.dptw_caches.tags.power_state.pwrStateResidencyTicks::UNDEFINED  39535903250                       # Cumulative time (in ticks) in various power states (Tick)
board.cache_hierarchy.iptw_caches.blockedCycles::no_mshrs            0                       # number of cycles access was blocked (Cycle)
board.cache_hierarchy.iptw_caches.blockedCycles::no_wbuffers            0                       # number of cycles access was blocked (Cycle)
board.cache_hierarchy.iptw_caches.blockedCycles::no_targets            0                       # number of cycles access was blocked (Cycle)
board.cache_hierarchy.iptw_caches.blockedCauses::no_mshrs            0                       # number of times access was blocked (Count)
board.cache_hierarchy.iptw_caches.blockedCauses::no_wbuffers            0                       # number of times access was blocked (Count)
board.cache_hierarchy.iptw_caches.blockedCauses::no_targets            0                       # number of times access was blocked (Count)
board.cache_hierarchy.iptw_caches.avgBlocked::no_mshrs          nan                       # average number of cycles each access was blocked ((Cycle/Count))
board.cache_hierarchy.iptw_caches.avgBlocked::no_wbuffers          nan                       # average number of cycles each access was blocked ((Cycle/Count))
board.cache_hierarchy.iptw_caches.avgBlocked::no_targets          nan                       # average number of cycles each access was blocked ((Cycle/Count))
board.cache_hierarchy.iptw_caches.replacements            0                       # number of replacements (Count)
board.cache_hierarchy.iptw_caches.power_state.pwrStateResidencyTicks::UNDEFINED  39535903250                       # Cumulative time (in ticks) in various power states (Tick)
board.cache_hierarchy.iptw_caches.tags.tagsInUse            0                       # Average ticks per tags in use ((Tick/Count))
board.cache_hierarchy.iptw_caches.tags.totalRefs            0                       # Total number of references to valid blocks. (Count)
board.cache_hierarchy.iptw_caches.tags.sampledRefs            0                       # Sample count of references to valid blocks. (Count)
board.cache_hierarchy.iptw_caches.tags.avgRefs          nan                       # Average number of references to valid blocks. ((Count/Count))
board.cache_hierarchy.iptw_caches.tags.warmupTick            0                       # The tick when the warmup percentage was hit. (Tick)
board.cache_hierarchy.iptw_caches.tags.tagAccesses            0                       # Number of tag accesses (Count)
board.cache_hierarchy.iptw_caches.tags.dataAccesses            0                       # Number of data accesses (Count)
board.cache_hierarchy.iptw_caches.tags.power_state.pwrStateResidencyTicks::UNDEFINED  39535903250                       # Cumulative time (in ticks) in various power states (Tick)
board.cache_hierarchy.l1dcaches.demandHits::processor.switch.core.data     23293828                       # number of demand (read+write) hits (Count)
board.cache_hierarchy.l1dcaches.demandHits::total     23293828                       # number of demand (read+write) hits (Count)
board.cache_hierarchy.l1dcaches.overallHits::processor.switch.core.data     23293828                       # number of overall hits (Count)
board.cache_hierarchy.l1dcaches.overallHits::total     23293828                       # number of overall hits (Count)
board.cache_hierarchy.l1dcaches.demandMisses::processor.switch.core.data      1985131                       # number of demand (read+write) misses (Count)
board.cache_hierarchy.l1dcaches.demandMisses::total      1985131                       # number of demand (read+write) misses (Count)
board.cache_hierarchy.l1dcaches.overallMisses::processor.switch.core.data      1985131                       # number of overall misses (Count)
board.cache_hierarchy.l1dcaches.overallMisses::total      1985131                       # number of overall misses (Count)
board.cache_hierarchy.l1dcaches.demandMissLatency::processor.switch.core.data  35318909747                       # number of demand (read+write) miss ticks (Tick)
board.cache_hierarchy.l1dcaches.demandMissLatency::total  35318909747                       # number of demand (read+write) miss ticks (Tick)
board.cache_hierarchy.l1dcaches.overallMissLatency::processor.switch.core.data  35318909747                       # number of overall miss ticks (Tick)
board.cache_hierarchy.l1dcaches.overallMissLatency::total  35318909747                       # number of overall miss ticks (Tick)
board.cache_hierarchy.l1dcaches.demandAccesses::processor.switch.core.data     25278959                       # number of demand (read+write) accesses (Count)
board.cache_hierarchy.l1dcaches.demandAccesses::total     25278959                       # number of demand (read+write) accesses (Count)
board.cache_hierarchy.l1dcaches.overallAccesses::processor.switch.core.data     25278959                       # number of overall (read+write) accesses (Count)
board.cache_hierarchy.l1dcaches.overallAccesses::total     25278959                       # number of overall (read+write) accesses (Count)
board.cache_hierarchy.l1dcaches.demandMissRate::processor.switch.core.data     0.078529                       # miss rate for demand accesses (Ratio)
board.cache_hierarchy.l1dcaches.demandMissRate::total     0.078529                       # miss rate for demand accesses (Ratio)
board.cache_hierarchy.l1dcaches.overallMissRate::processor.switch.core.data     0.078529                       # miss rate for overall accesses (Ratio)
board.cache_hierarchy.l1dcaches.overallMissRate::total     0.078529                       # miss rate for overall accesses (Ratio)
board.cache_hierarchy.l1dcaches.demandAvgMissLatency::processor.switch.core.data 17791.727471                       # average overall miss latency in ticks ((Tick/Count))
board.cache_hierarchy.l1dcaches.demandAvgMissLatency::total 17791.727471                       # average overall miss latency in ticks ((Tick/Count))
board.cache_hierarchy.l1dcaches.overallAvgMissLatency::processor.switch.core.data 17791.727471                       # average overall miss latency ((Tick/Count))
board.cache_hierarchy.l1dcaches.overallAvgMissLatency::total 17791.727471                       # average overall miss latency ((Tick/Count))
board.cache_hierarchy.l1dcaches.blockedCycles::no_mshrs           36                       # number of cycles access was blocked (Cycle)
board.cache_hierarchy.l1dcaches.blockedCycles::no_wbuffers            0                       # number of cycles access was blocked (Cycle)
board.cache_hierarchy.l1dcaches.blockedCycles::no_targets         1201                       # number of cycles access was blocked (Cycle)
board.cache_hierarchy.l1dcaches.blockedCauses::no_mshrs            3                       # number of times access was blocked (Count)
board.cache_hierarchy.l1dcaches.blockedCauses::no_wbuffers            0                       # number of times access was blocked (Count)
board.cache_hierarchy.l1dcaches.blockedCauses::no_targets           11                       # number of times access was blocked (Count)
board.cache_hierarchy.l1dcaches.avgBlocked::no_mshrs           12                       # average number of cycles each access was blocked ((Cycle/Count))
board.cache_hierarchy.l1dcaches.avgBlocked::no_wbuffers          nan                       # average number of cycles each access was blocked ((Cycle/Count))
board.cache_hierarchy.l1dcaches.avgBlocked::no_targets   109.181818                       # average number of cycles each access was blocked ((Cycle/Count))
board.cache_hierarchy.l1dcaches.writebacks::writebacks      1333420                       # number of writebacks (Count)
board.cache_hierarchy.l1dcaches.writebacks::total      1333420                       # number of writebacks (Count)
board.cache_hierarchy.l1dcaches.demandMshrHits::processor.switch.core.data       615486                       # number of demand (read+write) MSHR hits (Count)
board.cache_hierarchy.l1dcaches.demandMshrHits::total       615486                       # number of demand (read+write) MSHR hits (Count)
board.cache_hierarchy.l1dcaches.overallMshrHits::processor.switch.core.data       615486                       # number of overall MSHR hits (Count)
board.cache_hierarchy.l1dcaches.overallMshrHits::total       615486                       # number of overall MSHR hits (Count)
board.cache_hierarchy.l1dcaches.demandMshrMisses::processor.switch.core.data      1369645                       # number of demand (read+write) MSHR misses (Count)
board.cache_hierarchy.l1dcaches.demandMshrMisses::total      1369645                       # number of demand (read+write) MSHR misses (Count)
board.cache_hierarchy.l1dcaches.overallMshrMisses::cache_hierarchy.l1dcaches.prefetcher      1215574                       # number of overall MSHR misses (Count)
board.cache_hierarchy.l1dcaches.overallMshrMisses::processor.switch.core.data      1369645                       # number of overall MSHR misses (Count)
board.cache_hierarchy.l1dcaches.overallMshrMisses::total      2585219                       # number of overall MSHR misses (Count)
board.cache_hierarchy.l1dcaches.demandMshrMissLatency::processor.switch.core.data  18742545747                       # number of demand (read+write) MSHR miss ticks (Tick)
board.cache_hierarchy.l1dcaches.demandMshrMissLatency::total  18742545747                       # number of demand (read+write) MSHR miss ticks (Tick)
board.cache_hierarchy.l1dcaches.overallMshrMissLatency::cache_hierarchy.l1dcaches.prefetcher  33433057383                       # number of overall MSHR miss ticks (Tick)
board.cache_hierarchy.l1dcaches.overallMshrMissLatency::processor.switch.core.data  18742545747                       # number of overall MSHR miss ticks (Tick)
board.cache_hierarchy.l1dcaches.overallMshrMissLatency::total  52175603130                       # number of overall MSHR miss ticks (Tick)
board.cache_hierarchy.l1dcaches.demandMshrMissRate::processor.switch.core.data     0.054181                       # mshr miss ratio for demand accesses (Ratio)
board.cache_hierarchy.l1dcaches.demandMshrMissRate::total     0.054181                       # mshr miss ratio for demand accesses (Ratio)
board.cache_hierarchy.l1dcaches.overallMshrMissRate::cache_hierarchy.l1dcaches.prefetcher          inf                       # mshr miss ratio for overall accesses (Ratio)
board.cache_hierarchy.l1dcaches.overallMshrMissRate::processor.switch.core.data     0.054181                       # mshr miss ratio for overall accesses (Ratio)
board.cache_hierarchy.l1dcaches.overallMshrMissRate::total     0.102268                       # mshr miss ratio for overall accesses (Ratio)
board.cache_hierarchy.l1dcaches.demandAvgMshrMissLatency::processor.switch.core.data 13684.236242                       # average overall mshr miss latency ((Tick/Count))
board.cache_hierarchy.l1dcaches.demandAvgMshrMissLatency::total 13684.236242                       # average overall mshr miss latency ((Tick/Count))
board.cache_hierarchy.l1dcaches.overallAvgMshrMissLatency::cache_hierarchy.l1dcaches.prefetcher 27503.926032                       # average overall mshr miss latency ((Tick/Count))
board.cache_hierarchy.l1dcaches.overallAvgMshrMissLatency::processor.switch.core.data 13684.236242                       # average overall mshr miss latency ((Tick/Count))
board.cache_hierarchy.l1dcaches.overallAvgMshrMissLatency::total 20182.275904                       # average overall mshr miss latency ((Tick/Count))
board.cache_hierarchy.l1dcaches.replacements      2068842                       # number of replacements (Count)
board.cache_hierarchy.l1dcaches.HardPFReq.mshrMisses::cache_hierarchy.l1dcaches.prefetcher      1215574                       # number of HardPFReq MSHR misses (Count)
board.cache_hierarchy.l1dcaches.HardPFReq.mshrMisses::total      1215574                       # number of HardPFReq MSHR misses (Count)
board.cache_hierarchy.l1dcaches.HardPFReq.mshrMissLatency::cache_hierarchy.l1dcaches.prefetcher  33433057383                       # number of HardPFReq MSHR miss ticks (Tick)
board.cache_hierarchy.l1dcaches.HardPFReq.mshrMissLatency::total  33433057383                       # number of HardPFReq MSHR miss ticks (Tick)
board.cache_hierarchy.l1dcaches.HardPFReq.mshrMissRate::cache_hierarchy.l1dcaches.prefetcher          inf                       # mshr miss rate for HardPFReq accesses (Ratio)
board.cache_hierarchy.l1dcaches.HardPFReq.mshrMissRate::total          inf                       # mshr miss rate for HardPFReq accesses (Ratio)
board.cache_hierarchy.l1dcaches.HardPFReq.avgMshrMissLatency::cache_hierarchy.l1dcaches.prefetcher 27503.926032                       # average HardPFReq mshr miss latency ((Tick/Count))
board.cache_hierarchy.l1dcaches.HardPFReq.avgMshrMissLatency::total 27503.926032                       # average HardPFReq mshr miss latency ((Tick/Count))
board.cache_hierarchy.l1dcaches.ReadReq.hits::processor.switch.core.data     15563514                       # number of ReadReq hits (Count)
board.cache_hierarchy.l1dcaches.ReadReq.hits::total     15563514                       # number of ReadReq hits (Count)
board.cache_hierarchy.l1dcaches.ReadReq.misses::processor.switch.core.data      1186679                       # number of ReadReq misses (Count)
board.cache_hierarchy.l1dcaches.ReadReq.misses::total      1186679                       # number of ReadReq misses (Count)
board.cache_hierarchy.l1dcaches.ReadReq.missLatency::processor.switch.core.data  27533750750                       # number of ReadReq miss ticks (Tick)
board.cache_hierarchy.l1dcaches.ReadReq.missLatency::total  27533750750                       # number of ReadReq miss ticks (Tick)
board.cache_hierarchy.l1dcaches.ReadReq.accesses::processor.switch.core.data     16750193                       # number of ReadReq accesses(hits+misses) (Count)
board.cache_hierarchy.l1dcaches.ReadReq.accesses::total     16750193                       # number of ReadReq accesses(hits+misses) (Count)
board.cache_hierarchy.l1dcaches.ReadReq.missRate::processor.switch.core.data     0.070846                       # miss rate for ReadReq accesses (Ratio)
board.cache_hierarchy.l1dcaches.ReadReq.missRate::total     0.070846                       # miss rate for ReadReq accesses (Ratio)
board.cache_hierarchy.l1dcaches.ReadReq.avgMissLatency::processor.switch.core.data 23202.357799                       # average ReadReq miss latency ((Tick/Count))
board.cache_hierarchy.l1dcaches.ReadReq.avgMissLatency::total 23202.357799                       # average ReadReq miss latency ((Tick/Count))
board.cache_hierarchy.l1dcaches.ReadReq.mshrHits::processor.switch.core.data       555006                       # number of ReadReq MSHR hits (Count)
board.cache_hierarchy.l1dcaches.ReadReq.mshrHits::total       555006                       # number of ReadReq MSHR hits (Count)
board.cache_hierarchy.l1dcaches.ReadReq.mshrMisses::processor.switch.core.data       631673                       # number of ReadReq MSHR misses (Count)
board.cache_hierarchy.l1dcaches.ReadReq.mshrMisses::total       631673                       # number of ReadReq MSHR misses (Count)
board.cache_hierarchy.l1dcaches.ReadReq.mshrMissLatency::processor.switch.core.data  12149105500                       # number of ReadReq MSHR miss ticks (Tick)
board.cache_hierarchy.l1dcaches.ReadReq.mshrMissLatency::total  12149105500                       # number of ReadReq MSHR miss ticks (Tick)
board.cache_hierarchy.l1dcaches.ReadReq.mshrMissRate::processor.switch.core.data     0.037711                       # mshr miss rate for ReadReq accesses (Ratio)
board.cache_hierarchy.l1dcaches.ReadReq.mshrMissRate::total     0.037711                       # mshr miss rate for ReadReq accesses (Ratio)
board.cache_hierarchy.l1dcaches.ReadReq.avgMshrMissLatency::processor.switch.core.data 19233.219561                       # average ReadReq mshr miss latency ((Tick/Count))
board.cache_hierarchy.l1dcaches.ReadReq.avgMshrMissLatency::total 19233.219561                       # average ReadReq mshr miss latency ((Tick/Count))
board.cache_hierarchy.l1dcaches.WriteReq.hits::processor.switch.core.data      7730314                       # number of WriteReq hits (Count)
board.cache_hierarchy.l1dcaches.WriteReq.hits::total      7730314                       # number of WriteReq hits (Count)
board.cache_hierarchy.l1dcaches.WriteReq.misses::processor.switch.core.data       798452                       # number of WriteReq misses (Count)
board.cache_hierarchy.l1dcaches.WriteReq.misses::total       798452                       # number of WriteReq misses (Count)
board.cache_hierarchy.l1dcaches.WriteReq.missLatency::processor.switch.core.data   7785158997                       # number of WriteReq miss ticks (Tick)
board.cache_hierarchy.l1dcaches.WriteReq.missLatency::total   7785158997                       # number of WriteReq miss ticks (Tick)
board.cache_hierarchy.l1dcaches.WriteReq.accesses::processor.switch.core.data      8528766                       # number of WriteReq accesses(hits+misses) (Count)
board.cache_hierarchy.l1dcaches.WriteReq.accesses::total      8528766                       # number of WriteReq accesses(hits+misses) (Count)
board.cache_hierarchy.l1dcaches.WriteReq.missRate::processor.switch.core.data     0.093619                       # miss rate for WriteReq accesses (Ratio)
board.cache_hierarchy.l1dcaches.WriteReq.missRate::total     0.093619                       # miss rate for WriteReq accesses (Ratio)
board.cache_hierarchy.l1dcaches.WriteReq.avgMissLatency::processor.switch.core.data  9750.315607                       # average WriteReq miss latency ((Tick/Count))
board.cache_hierarchy.l1dcaches.WriteReq.avgMissLatency::total  9750.315607                       # average WriteReq miss latency ((Tick/Count))
board.cache_hierarchy.l1dcaches.WriteReq.mshrHits::processor.switch.core.data        60480                       # number of WriteReq MSHR hits (Count)
board.cache_hierarchy.l1dcaches.WriteReq.mshrHits::total        60480                       # number of WriteReq MSHR hits (Count)
board.cache_hierarchy.l1dcaches.WriteReq.mshrMisses::processor.switch.core.data       737972                       # number of WriteReq MSHR misses (Count)
board.cache_hierarchy.l1dcaches.WriteReq.mshrMisses::total       737972                       # number of WriteReq MSHR misses (Count)
board.cache_hierarchy.l1dcaches.WriteReq.mshrMissLatency::processor.switch.core.data   6593440247                       # number of WriteReq MSHR miss ticks (Tick)
board.cache_hierarchy.l1dcaches.WriteReq.mshrMissLatency::total   6593440247                       # number of WriteReq MSHR miss ticks (Tick)
board.cache_hierarchy.l1dcaches.WriteReq.mshrMissRate::processor.switch.core.data     0.086527                       # mshr miss rate for WriteReq accesses (Ratio)
board.cache_hierarchy.l1dcaches.WriteReq.mshrMissRate::total     0.086527                       # mshr miss rate for WriteReq accesses (Ratio)
board.cache_hierarchy.l1dcaches.WriteReq.avgMshrMissLatency::processor.switch.core.data  8934.539857                       # average WriteReq mshr miss latency ((Tick/Count))
board.cache_hierarchy.l1dcaches.WriteReq.avgMshrMissLatency::total  8934.539857                       # average WriteReq mshr miss latency ((Tick/Count))
board.cache_hierarchy.l1dcaches.power_state.pwrStateResidencyTicks::UNDEFINED  39535903250                       # Cumulative time (in ticks) in various power states (Tick)
board.cache_hierarchy.l1dcaches.prefetcher.demandMshrMisses      1369645                       # demands not covered by prefetchs (Count)
board.cache_hierarchy.l1dcaches.prefetcher.pfIssued      3580883                       # number of hwpf issued (Count)
board.cache_hierarchy.l1dcaches.prefetcher.pfUnused        67513                       # number of HardPF blocks evicted w/o reference (Count)
board.cache_hierarchy.l1dcaches.prefetcher.pfUseful      1470094                       # number of useful prefetch (Count)
board.cache_hierarchy.l1dcaches.prefetcher.pfUsefulButMiss       407115                       # number of hit on prefetch but cache block is not in an usable state (Count)
board.cache_hierarchy.l1dcaches.prefetcher.accuracy     0.410540                       # accuracy of the prefetcher (Count)
board.cache_hierarchy.l1dcaches.prefetcher.coverage     0.517686                       # coverage brought by this prefetcher (Count)
board.cache_hierarchy.l1dcaches.prefetcher.pfHitInCache      1737027                       # number of prefetches hitting in cache (Count)
board.cache_hierarchy.l1dcaches.prefetcher.pfHitInMSHR       628278                       # number of prefetches hitting in a MSHR (Count)
board.cache_hierarchy.l1dcaches.prefetcher.pfHitInWB            4                       # number of prefetches hit in the Write Buffer (Count)
board.cache_hierarchy.l1dcaches.prefetcher.pfLate      2365309                       # number of late prefetches (hitting in cache, MSHR or WB) (Count)
board.cache_hierarchy.l1dcaches.prefetcher.pfIdentified      3667659                       # number of prefetch candidates identified (Count)
board.cache_hierarchy.l1dcaches.prefetcher.pfBufferHit        52197                       # number of redundant prefetches already in prefetch queue (Count)
board.cache_hierarchy.l1dcaches.prefetcher.pfInCache            0                       # number of redundant prefetches already in cache/mshr dropped (Count)
board.cache_hierarchy.l1dcaches.prefetcher.pfRemovedDemand        10897                       # number of prefetches dropped due to a demand for the same address (Count)
board.cache_hierarchy.l1dcaches.prefetcher.pfRemovedFull            2                       # number of prefetches dropped due to prefetch queue size (Count)
board.cache_hierarchy.l1dcaches.prefetcher.pfSpanPage       121278                       # number of prefetches that crossed the page (Count)
board.cache_hierarchy.l1dcaches.prefetcher.pfUsefulSpanPage       100803                       # number of prefetches that is useful and crossed the page (Count)
board.cache_hierarchy.l1dcaches.prefetcher.power_state.pwrStateResidencyTicks::UNDEFINED  39535903250                       # Cumulative time (in ticks) in various power states (Tick)
board.cache_hierarchy.l1dcaches.tags.tagsInUse          512                       # Average ticks per tags in use ((Tick/Count))
board.cache_hierarchy.l1dcaches.tags.totalRefs     25918225                       # Total number of references to valid blocks. (Count)
board.cache_hierarchy.l1dcaches.tags.sampledRefs      2068842                       # Sample count of references to valid blocks. (Count)
board.cache_hierarchy.l1dcaches.tags.avgRefs    12.527890                       # Average number of references to valid blocks. ((Count/Count))
board.cache_hierarchy.l1dcaches.tags.warmupTick            0                       # The tick when the warmup percentage was hit. (Tick)
board.cache_hierarchy.l1dcaches.tags.occupancies::cache_hierarchy.l1dcaches.prefetcher   347.742809                       # Average occupied blocks per tick, per requestor ((Count/Tick))
board.cache_hierarchy.l1dcaches.tags.occupancies::processor.switch.core.data   164.257191                       # Average occupied blocks per tick, per requestor ((Count/Tick))
board.cache_hierarchy.l1dcaches.tags.avgOccs::cache_hierarchy.l1dcaches.prefetcher     0.679185                       # Average percentage of cache occupancy ((Ratio/Tick))
board.cache_hierarchy.l1dcaches.tags.avgOccs::processor.switch.core.data     0.320815                       # Average percentage of cache occupancy ((Ratio/Tick))
board.cache_hierarchy.l1dcaches.tags.avgOccs::total            1                       # Average percentage of cache occupancy ((Ratio/Tick))
board.cache_hierarchy.l1dcaches.tags.occupanciesTaskId::1022          434                       # Occupied blocks per task id (Count)
board.cache_hierarchy.l1dcaches.tags.occupanciesTaskId::1024           78                       # Occupied blocks per task id (Count)
board.cache_hierarchy.l1dcaches.tags.ageTaskId_1022::0          388                       # Occupied blocks per task id, per block age (Count)
board.cache_hierarchy.l1dcaches.tags.ageTaskId_1022::1           46                       # Occupied blocks per task id, per block age (Count)
board.cache_hierarchy.l1dcaches.tags.ageTaskId_1024::0           74                       # Occupied blocks per task id, per block age (Count)
board.cache_hierarchy.l1dcaches.tags.ageTaskId_1024::1            2                       # Occupied blocks per task id, per block age (Count)
board.cache_hierarchy.l1dcaches.tags.ageTaskId_1024::2            2                       # Occupied blocks per task id, per block age (Count)
board.cache_hierarchy.l1dcaches.tags.ratioOccsTaskId::1022     0.847656                       # Ratio of occupied blocks and all blocks, per task id (Ratio)
board.cache_hierarchy.l1dcaches.tags.ratioOccsTaskId::1024     0.152344                       # Ratio of occupied blocks and all blocks, per task id (Ratio)
board.cache_hierarchy.l1dcaches.tags.tagAccesses    204300514                       # Number of tag accesses (Count)
board.cache_hierarchy.l1dcaches.tags.dataAccesses    204300514                       # Number of data accesses (Count)
board.cache_hierarchy.l1dcaches.tags.power_state.pwrStateResidencyTicks::UNDEFINED  39535903250                       # Cumulative time (in ticks) in various power states (Tick)
board.cache_hierarchy.l1icaches.demandHits::processor.switch.core.inst     27286787                       # number of demand (read+write) hits (Count)
board.cache_hierarchy.l1icaches.demandHits::total     27286787                       # number of demand (read+write) hits (Count)
board.cache_hierarchy.l1icaches.overallHits::processor.switch.core.inst     27286787                       # number of overall hits (Count)
board.cache_hierarchy.l1icaches.overallHits::total     27286787                       # number of overall hits (Count)
board.cache_hierarchy.l1icaches.demandMisses::processor.switch.core.inst         2746                       # number of demand (read+write) misses (Count)
board.cache_hierarchy.l1icaches.demandMisses::total         2746                       # number of demand (read+write) misses (Count)
board.cache_hierarchy.l1icaches.overallMisses::processor.switch.core.inst         2746                       # number of overall misses (Count)
board.cache_hierarchy.l1icaches.overallMisses::total         2746                       # number of overall misses (Count)
board.cache_hierarchy.l1icaches.demandMissLatency::processor.switch.core.inst    128312250                       # number of demand (read+write) miss ticks (Tick)
board.cache_hierarchy.l1icaches.demandMissLatency::total    128312250                       # number of demand (read+write) miss ticks (Tick)
board.cache_hierarchy.l1icaches.overallMissLatency::processor.switch.core.inst    128312250                       # number of overall miss ticks (Tick)
board.cache_hierarchy.l1icaches.overallMissLatency::total    128312250                       # number of overall miss ticks (Tick)
board.cache_hierarchy.l1icaches.demandAccesses::processor.switch.core.inst     27289533                       # number of demand (read+write) accesses (Count)
board.cache_hierarchy.l1icaches.demandAccesses::total     27289533                       # number of demand (read+write) accesses (Count)
board.cache_hierarchy.l1icaches.overallAccesses::processor.switch.core.inst     27289533                       # number of overall (read+write) accesses (Count)
board.cache_hierarchy.l1icaches.overallAccesses::total     27289533                       # number of overall (read+write) accesses (Count)
board.cache_hierarchy.l1icaches.demandMissRate::processor.switch.core.inst     0.000101                       # miss rate for demand accesses (Ratio)
board.cache_hierarchy.l1icaches.demandMissRate::total     0.000101                       # miss rate for demand accesses (Ratio)
board.cache_hierarchy.l1icaches.overallMissRate::processor.switch.core.inst     0.000101                       # miss rate for overall accesses (Ratio)
board.cache_hierarchy.l1icaches.overallMissRate::total     0.000101                       # miss rate for overall accesses (Ratio)
board.cache_hierarchy.l1icaches.demandAvgMissLatency::processor.switch.core.inst 46726.966497                       # average overall miss latency in ticks ((Tick/Count))
board.cache_hierarchy.l1icaches.demandAvgMissLatency::total 46726.966497                       # average overall miss latency in ticks ((Tick/Count))
board.cache_hierarchy.l1icaches.overallAvgMissLatency::processor.switch.core.inst 46726.966497                       # average overall miss latency ((Tick/Count))
board.cache_hierarchy.l1icaches.overallAvgMissLatency::total 46726.966497                       # average overall miss latency ((Tick/Count))
board.cache_hierarchy.l1icaches.blockedCycles::no_mshrs            0                       # number of cycles access was blocked (Cycle)
board.cache_hierarchy.l1icaches.blockedCycles::no_wbuffers            0                       # number of cycles access was blocked (Cycle)
board.cache_hierarchy.l1icaches.blockedCycles::no_targets            0                       # number of cycles access was blocked (Cycle)
board.cache_hierarchy.l1icaches.blockedCauses::no_mshrs            0                       # number of times access was blocked (Count)
board.cache_hierarchy.l1icaches.blockedCauses::no_wbuffers            0                       # number of times access was blocked (Count)
board.cache_hierarchy.l1icaches.blockedCauses::no_targets            0                       # number of times access was blocked (Count)
board.cache_hierarchy.l1icaches.avgBlocked::no_mshrs          nan                       # average number of cycles each access was blocked ((Cycle/Count))
board.cache_hierarchy.l1icaches.avgBlocked::no_wbuffers          nan                       # average number of cycles each access was blocked ((Cycle/Count))
board.cache_hierarchy.l1icaches.avgBlocked::no_targets          nan                       # average number of cycles each access was blocked ((Cycle/Count))
board.cache_hierarchy.l1icaches.demandMshrHits::processor.switch.core.inst          430                       # number of demand (read+write) MSHR hits (Count)
board.cache_hierarchy.l1icaches.demandMshrHits::total          430                       # number of demand (read+write) MSHR hits (Count)
board.cache_hierarchy.l1icaches.overallMshrHits::processor.switch.core.inst          430                       # number of overall MSHR hits (Count)
board.cache_hierarchy.l1icaches.overallMshrHits::total          430                       # number of overall MSHR hits (Count)
board.cache_hierarchy.l1icaches.demandMshrMisses::processor.switch.core.inst         2316                       # number of demand (read+write) MSHR misses (Count)
board.cache_hierarchy.l1icaches.demandMshrMisses::total         2316                       # number of demand (read+write) MSHR misses (Count)
board.cache_hierarchy.l1icaches.overallMshrMisses::processor.switch.core.inst         2316                       # number of overall MSHR misses (Count)
board.cache_hierarchy.l1icaches.overallMshrMisses::total         2316                       # number of overall MSHR misses (Count)
board.cache_hierarchy.l1icaches.demandMshrMissLatency::processor.switch.core.inst    113025750                       # number of demand (read+write) MSHR miss ticks (Tick)
board.cache_hierarchy.l1icaches.demandMshrMissLatency::total    113025750                       # number of demand (read+write) MSHR miss ticks (Tick)
board.cache_hierarchy.l1icaches.overallMshrMissLatency::processor.switch.core.inst    113025750                       # number of overall MSHR miss ticks (Tick)
board.cache_hierarchy.l1icaches.overallMshrMissLatency::total    113025750                       # number of overall MSHR miss ticks (Tick)
board.cache_hierarchy.l1icaches.demandMshrMissRate::processor.switch.core.inst     0.000085                       # mshr miss ratio for demand accesses (Ratio)
board.cache_hierarchy.l1icaches.demandMshrMissRate::total     0.000085                       # mshr miss ratio for demand accesses (Ratio)
board.cache_hierarchy.l1icaches.overallMshrMissRate::processor.switch.core.inst     0.000085                       # mshr miss ratio for overall accesses (Ratio)
board.cache_hierarchy.l1icaches.overallMshrMissRate::total     0.000085                       # mshr miss ratio for overall accesses (Ratio)
board.cache_hierarchy.l1icaches.demandAvgMshrMissLatency::processor.switch.core.inst 48802.137306                       # average overall mshr miss latency ((Tick/Count))
board.cache_hierarchy.l1icaches.demandAvgMshrMissLatency::total 48802.137306                       # average overall mshr miss latency ((Tick/Count))
board.cache_hierarchy.l1icaches.overallAvgMshrMissLatency::processor.switch.core.inst 48802.137306                       # average overall mshr miss latency ((Tick/Count))
board.cache_hierarchy.l1icaches.overallAvgMshrMissLatency::total 48802.137306                       # average overall mshr miss latency ((Tick/Count))
board.cache_hierarchy.l1icaches.replacements         2313                       # number of replacements (Count)
board.cache_hierarchy.l1icaches.ReadReq.hits::processor.switch.core.inst     27286787                       # number of ReadReq hits (Count)
board.cache_hierarchy.l1icaches.ReadReq.hits::total     27286787                       # number of ReadReq hits (Count)
board.cache_hierarchy.l1icaches.ReadReq.misses::processor.switch.core.inst         2746                       # number of ReadReq misses (Count)
board.cache_hierarchy.l1icaches.ReadReq.misses::total         2746                       # number of ReadReq misses (Count)
board.cache_hierarchy.l1icaches.ReadReq.missLatency::processor.switch.core.inst    128312250                       # number of ReadReq miss ticks (Tick)
board.cache_hierarchy.l1icaches.ReadReq.missLatency::total    128312250                       # number of ReadReq miss ticks (Tick)
board.cache_hierarchy.l1icaches.ReadReq.accesses::processor.switch.core.inst     27289533                       # number of ReadReq accesses(hits+misses) (Count)
board.cache_hierarchy.l1icaches.ReadReq.accesses::total     27289533                       # number of ReadReq accesses(hits+misses) (Count)
board.cache_hierarchy.l1icaches.ReadReq.missRate::processor.switch.core.inst     0.000101                       # miss rate for ReadReq accesses (Ratio)
board.cache_hierarchy.l1icaches.ReadReq.missRate::total     0.000101                       # miss rate for ReadReq accesses (Ratio)
board.cache_hierarchy.l1icaches.ReadReq.avgMissLatency::processor.switch.core.inst 46726.966497                       # average ReadReq miss latency ((Tick/Count))
board.cache_hierarchy.l1icaches.ReadReq.avgMissLatency::total 46726.966497                       # average ReadReq miss latency ((Tick/Count))
board.cache_hierarchy.l1icaches.ReadReq.mshrHits::processor.switch.core.inst          430                       # number of ReadReq MSHR hits (Count)
board.cache_hierarchy.l1icaches.ReadReq.mshrHits::total          430                       # number of ReadReq MSHR hits (Count)
board.cache_hierarchy.l1icaches.ReadReq.mshrMisses::processor.switch.core.inst         2316                       # number of ReadReq MSHR misses (Count)
board.cache_hierarchy.l1icaches.ReadReq.mshrMisses::total         2316                       # number of ReadReq MSHR misses (Count)
board.cache_hierarchy.l1icaches.ReadReq.mshrMissLatency::processor.switch.core.inst    113025750                       # number of ReadReq MSHR miss ticks (Tick)
board.cache_hierarchy.l1icaches.ReadReq.mshrMissLatency::total    113025750                       # number of ReadReq MSHR miss ticks (Tick)
board.cache_hierarchy.l1icaches.ReadReq.mshrMissRate::processor.switch.core.inst     0.000085                       # mshr miss rate for ReadReq accesses (Ratio)
board.cache_hierarchy.l1icaches.ReadReq.mshrMissRate::total     0.000085                       # mshr miss rate for ReadReq accesses (Ratio)
board.cache_hierarchy.l1icaches.ReadReq.avgMshrMissLatency::processor.switch.core.inst 48802.137306                       # average ReadReq mshr miss latency ((Tick/Count))
board.cache_hierarchy.l1icaches.ReadReq.avgMshrMissLatency::total 48802.137306                       # average ReadReq mshr miss latency ((Tick/Count))
board.cache_hierarchy.l1icaches.power_state.pwrStateResidencyTicks::UNDEFINED  39535903250                       # Cumulative time (in ticks) in various power states (Tick)
board.cache_hierarchy.l1icaches.tags.tagsInUse   511.797716                       # Average ticks per tags in use ((Tick/Count))
board.cache_hierarchy.l1icaches.tags.totalRefs     25455484                       # Total number of references to valid blocks. (Count)
board.cache_hierarchy.l1icaches.tags.sampledRefs         2316                       # Sample count of references to valid blocks. (Count)
board.cache_hierarchy.l1icaches.tags.avgRefs 10991.141623                       # Average number of references to valid blocks. ((Count/Count))
board.cache_hierarchy.l1icaches.tags.warmupTick            0                       # The tick when the warmup percentage was hit. (Tick)
board.cache_hierarchy.l1icaches.tags.occupancies::processor.switch.core.inst   511.797716                       # Average occupied blocks per tick, per requestor ((Count/Tick))
board.cache_hierarchy.l1icaches.tags.avgOccs::processor.switch.core.inst     0.999605                       # Average percentage of cache occupancy ((Ratio/Tick))
board.cache_hierarchy.l1icaches.tags.avgOccs::total     0.999605                       # Average percentage of cache occupancy ((Ratio/Tick))
board.cache_hierarchy.l1icaches.tags.occupanciesTaskId::1024          512                       # Occupied blocks per task id (Count)
board.cache_hierarchy.l1icaches.tags.ageTaskId_1024::2           29                       # Occupied blocks per task id, per block age (Count)
board.cache_hierarchy.l1icaches.tags.ageTaskId_1024::3          366                       # Occupied blocks per task id, per block age (Count)
board.cache_hierarchy.l1icaches.tags.ageTaskId_1024::4          117                       # Occupied blocks per task id, per block age (Count)
board.cache_hierarchy.l1icaches.tags.ratioOccsTaskId::1024            1                       # Ratio of occupied blocks and all blocks, per task id (Ratio)
board.cache_hierarchy.l1icaches.tags.tagAccesses    218318580                       # Number of tag accesses (Count)
board.cache_hierarchy.l1icaches.tags.dataAccesses    218318580                       # Number of data accesses (Count)
board.cache_hierarchy.l1icaches.tags.power_state.pwrStateResidencyTicks::UNDEFINED  39535903250                       # Cumulative time (in ticks) in various power states (Tick)
board.cache_hierarchy.l2buses.transDist::ReadResp      1849559                       # Transaction distribution (Count)
board.cache_hierarchy.l2buses.transDist::WritebackDirty      2427057                       # Transaction distribution (Count)
board.cache_hierarchy.l2buses.transDist::CleanEvict      1160487                       # Transaction distribution (Count)
board.cache_hierarchy.l2buses.transDist::UpgradeReq       516511                       # Transaction distribution (Count)
board.cache_hierarchy.l2buses.transDist::UpgradeResp       516511                       # Transaction distribution (Count)
board.cache_hierarchy.l2buses.transDist::ReadExReq       221599                       # Transaction distribution (Count)
board.cache_hierarchy.l2buses.transDist::ReadExResp       221599                       # Transaction distribution (Count)
board.cache_hierarchy.l2buses.transDist::ReadSharedReq      1849561                       # Transaction distribution (Count)
board.cache_hierarchy.l2buses.pktCount_board.cache_hierarchy.l1icaches.mem_side_port::board.cache_hierarchy.l2caches.cpu_side_port         6944                       # Packet count per connected requestor and responder (Count)
board.cache_hierarchy.l2buses.pktCount_board.cache_hierarchy.l1dcaches.mem_side_port::board.cache_hierarchy.l2caches.cpu_side_port      7239550                       # Packet count per connected requestor and responder (Count)
board.cache_hierarchy.l2buses.pktCount::total      7246494                       # Packet count per connected requestor and responder (Count)
board.cache_hierarchy.l2buses.pktSize_board.cache_hierarchy.l1icaches.mem_side_port::board.cache_hierarchy.l2caches.cpu_side_port       148160                       # Cumulative packet size per connected requestor and responder (Byte)
board.cache_hierarchy.l2buses.pktSize_board.cache_hierarchy.l1dcaches.mem_side_port::board.cache_hierarchy.l2caches.cpu_side_port    217744768                       # Cumulative packet size per connected requestor and responder (Byte)
board.cache_hierarchy.l2buses.pktSize::total    217892928                       # Cumulative packet size per connected requestor and responder (Byte)
board.cache_hierarchy.l2buses.snoops          1516390                       # Total snoops (Count)
board.cache_hierarchy.l2buses.snoopTraffic     69992832                       # Total snoop traffic (Byte)
board.cache_hierarchy.l2buses.snoopFanout::samples      4104060                       # Request fanout histogram (Count)
board.cache_hierarchy.l2buses.snoopFanout::mean     0.000846                       # Request fanout histogram (Count)
board.cache_hierarchy.l2buses.snoopFanout::stdev     0.029141                       # Request fanout histogram (Count)
board.cache_hierarchy.l2buses.snoopFanout::underflows            0      0.00%      0.00% # Request fanout histogram (Count)
board.cache_hierarchy.l2buses.snoopFanout::0      4100596     99.92%     99.92% # Request fanout histogram (Count)
board.cache_hierarchy.l2buses.snoopFanout::1         3456      0.08%    100.00% # Request fanout histogram (Count)
board.cache_hierarchy.l2buses.snoopFanout::2            8      0.00%    100.00% # Request fanout histogram (Count)
board.cache_hierarchy.l2buses.snoopFanout::3            0      0.00%    100.00% # Request fanout histogram (Count)
board.cache_hierarchy.l2buses.snoopFanout::4            0      0.00%    100.00% # Request fanout histogram (Count)
board.cache_hierarchy.l2buses.snoopFanout::overflows            0      0.00%    100.00% # Request fanout histogram (Count)
board.cache_hierarchy.l2buses.snoopFanout::min_value            0                       # Request fanout histogram (Count)
board.cache_hierarchy.l2buses.snoopFanout::max_value            2                       # Request fanout histogram (Count)
board.cache_hierarchy.l2buses.snoopFanout::total      4104060                       # Request fanout histogram (Count)
board.cache_hierarchy.l2buses.power_state.pwrStateResidencyTicks::UNDEFINED  39535903250                       # Cumulative time (in ticks) in various power states (Tick)
board.cache_hierarchy.l2buses.reqLayer0.occupancy   1758295788                       # Layer occupancy (ticks) (Tick)
board.cache_hierarchy.l2buses.reqLayer0.utilization          0.0                       # Layer utilization (Ratio)
board.cache_hierarchy.l2buses.respLayer0.occupancy      1162233                       # Layer occupancy (ticks) (Tick)
board.cache_hierarchy.l2buses.respLayer0.utilization          0.0                       # Layer utilization (Ratio)
board.cache_hierarchy.l2buses.respLayer1.occupancy   1163548750                       # Layer occupancy (ticks) (Tick)
board.cache_hierarchy.l2buses.respLayer1.utilization          0.0                       # Layer utilization (Ratio)
board.cache_hierarchy.l2buses.snoop_filter.totRequests      4658826                       # Total number of requests made to the snoop filter. (Count)
board.cache_hierarchy.l2buses.snoop_filter.hitSingleRequests      2587658                       # Number of requests hitting in the snoop filter with a single holder of the requested data. (Count)
board.cache_hierarchy.l2buses.snoop_filter.hitMultiRequests          151                       # Number of requests hitting in the snoop filter with multiple (>1) holders of the requested data. (Count)
board.cache_hierarchy.l2buses.snoop_filter.totSnoops         3313                       # Total number of snoops made to the snoop filter. (Count)
board.cache_hierarchy.l2buses.snoop_filter.hitSingleSnoops         3305                       # Number of snoops hitting in the snoop filter with a single holder of the requested data. (Count)
board.cache_hierarchy.l2buses.snoop_filter.hitMultiSnoops            8                       # Number of snoops hitting in the snoop filter with multiple (>1) holders of the requested data. (Count)
board.cache_hierarchy.l2caches.demandHits::cache_hierarchy.l1dcaches.prefetcher       134017                       # number of demand (read+write) hits (Count)
board.cache_hierarchy.l2caches.demandHits::processor.switch.core.inst            7                       # number of demand (read+write) hits (Count)
board.cache_hierarchy.l2caches.demandHits::processor.switch.core.data       421685                       # number of demand (read+write) hits (Count)
board.cache_hierarchy.l2caches.demandHits::total       555709                       # number of demand (read+write) hits (Count)
board.cache_hierarchy.l2caches.overallHits::cache_hierarchy.l1dcaches.prefetcher       134017                       # number of overall hits (Count)
board.cache_hierarchy.l2caches.overallHits::processor.switch.core.inst            7                       # number of overall hits (Count)
board.cache_hierarchy.l2caches.overallHits::processor.switch.core.data       421685                       # number of overall hits (Count)
board.cache_hierarchy.l2caches.overallHits::total       555709                       # number of overall hits (Count)
board.cache_hierarchy.l2caches.demandMisses::cache_hierarchy.l1dcaches.prefetcher      1081557                       # number of demand (read+write) misses (Count)
board.cache_hierarchy.l2caches.demandMisses::processor.switch.core.inst         2308                       # number of demand (read+write) misses (Count)
board.cache_hierarchy.l2caches.demandMisses::processor.switch.core.data       431585                       # number of demand (read+write) misses (Count)
board.cache_hierarchy.l2caches.demandMisses::total      1515450                       # number of demand (read+write) misses (Count)
board.cache_hierarchy.l2caches.overallMisses::cache_hierarchy.l1dcaches.prefetcher      1081557                       # number of overall misses (Count)
board.cache_hierarchy.l2caches.overallMisses::processor.switch.core.inst         2308                       # number of overall misses (Count)
board.cache_hierarchy.l2caches.overallMisses::processor.switch.core.data       431585                       # number of overall misses (Count)
board.cache_hierarchy.l2caches.overallMisses::total      1515450                       # number of overall misses (Count)
board.cache_hierarchy.l2caches.demandMissLatency::cache_hierarchy.l1dcaches.prefetcher  32523379313                       # number of demand (read+write) miss ticks (Tick)
board.cache_hierarchy.l2caches.demandMissLatency::processor.switch.core.inst    110068250                       # number of demand (read+write) miss ticks (Tick)
board.cache_hierarchy.l2caches.demandMissLatency::processor.switch.core.data  13405338000                       # number of demand (read+write) miss ticks (Tick)
board.cache_hierarchy.l2caches.demandMissLatency::total  46038785563                       # number of demand (read+write) miss ticks (Tick)
board.cache_hierarchy.l2caches.overallMissLatency::cache_hierarchy.l1dcaches.prefetcher  32523379313                       # number of overall miss ticks (Tick)
board.cache_hierarchy.l2caches.overallMissLatency::processor.switch.core.inst    110068250                       # number of overall miss ticks (Tick)
board.cache_hierarchy.l2caches.overallMissLatency::processor.switch.core.data  13405338000                       # number of overall miss ticks (Tick)
board.cache_hierarchy.l2caches.overallMissLatency::total  46038785563                       # number of overall miss ticks (Tick)
board.cache_hierarchy.l2caches.demandAccesses::cache_hierarchy.l1dcaches.prefetcher      1215574                       # number of demand (read+write) accesses (Count)
board.cache_hierarchy.l2caches.demandAccesses::processor.switch.core.inst         2315                       # number of demand (read+write) accesses (Count)
board.cache_hierarchy.l2caches.demandAccesses::processor.switch.core.data       853270                       # number of demand (read+write) accesses (Count)
board.cache_hierarchy.l2caches.demandAccesses::total      2071159                       # number of demand (read+write) accesses (Count)
board.cache_hierarchy.l2caches.overallAccesses::cache_hierarchy.l1dcaches.prefetcher      1215574                       # number of overall (read+write) accesses (Count)
board.cache_hierarchy.l2caches.overallAccesses::processor.switch.core.inst         2315                       # number of overall (read+write) accesses (Count)
board.cache_hierarchy.l2caches.overallAccesses::processor.switch.core.data       853270                       # number of overall (read+write) accesses (Count)
board.cache_hierarchy.l2caches.overallAccesses::total      2071159                       # number of overall (read+write) accesses (Count)
board.cache_hierarchy.l2caches.demandMissRate::cache_hierarchy.l1dcaches.prefetcher     0.889750                       # miss rate for demand accesses (Ratio)
board.cache_hierarchy.l2caches.demandMissRate::processor.switch.core.inst     0.996976                       # miss rate for demand accesses (Ratio)
board.cache_hierarchy.l2caches.demandMissRate::processor.switch.core.data     0.505801                       # miss rate for demand accesses (Ratio)
board.cache_hierarchy.l2caches.demandMissRate::total     0.731692                       # miss rate for demand accesses (Ratio)
board.cache_hierarchy.l2caches.overallMissRate::cache_hierarchy.l1dcaches.prefetcher     0.889750                       # miss rate for overall accesses (Ratio)
board.cache_hierarchy.l2caches.overallMissRate::processor.switch.core.inst     0.996976                       # miss rate for overall accesses (Ratio)
board.cache_hierarchy.l2caches.overallMissRate::processor.switch.core.data     0.505801                       # miss rate for overall accesses (Ratio)
board.cache_hierarchy.l2caches.overallMissRate::total     0.731692                       # miss rate for overall accesses (Ratio)
board.cache_hierarchy.l2caches.demandAvgMissLatency::cache_hierarchy.l1dcaches.prefetcher 30070.887908                       # average overall miss latency in ticks ((Tick/Count))
board.cache_hierarchy.l2caches.demandAvgMissLatency::processor.switch.core.inst 47689.883016                       # average overall miss latency in ticks ((Tick/Count))
board.cache_hierarchy.l2caches.demandAvgMissLatency::processor.switch.core.data 31060.713417                       # average overall miss latency in ticks ((Tick/Count))
board.cache_hierarchy.l2caches.demandAvgMissLatency::total 30379.613688                       # average overall miss latency in ticks ((Tick/Count))
board.cache_hierarchy.l2caches.overallAvgMissLatency::cache_hierarchy.l1dcaches.prefetcher 30070.887908                       # average overall miss latency ((Tick/Count))
board.cache_hierarchy.l2caches.overallAvgMissLatency::processor.switch.core.inst 47689.883016                       # average overall miss latency ((Tick/Count))
board.cache_hierarchy.l2caches.overallAvgMissLatency::processor.switch.core.data 31060.713417                       # average overall miss latency ((Tick/Count))
board.cache_hierarchy.l2caches.overallAvgMissLatency::total 30379.613688                       # average overall miss latency ((Tick/Count))
board.cache_hierarchy.l2caches.blockedCycles::no_mshrs            0                       # number of cycles access was blocked (Cycle)
board.cache_hierarchy.l2caches.blockedCycles::no_wbuffers            0                       # number of cycles access was blocked (Cycle)
board.cache_hierarchy.l2caches.blockedCycles::no_targets            0                       # number of cycles access was blocked (Cycle)
board.cache_hierarchy.l2caches.blockedCauses::no_mshrs            0                       # number of times access was blocked (Count)
board.cache_hierarchy.l2caches.blockedCauses::no_wbuffers            0                       # number of times access was blocked (Count)
board.cache_hierarchy.l2caches.blockedCauses::no_targets            0                       # number of times access was blocked (Count)
board.cache_hierarchy.l2caches.avgBlocked::no_mshrs          nan                       # average number of cycles each access was blocked ((Cycle/Count))
board.cache_hierarchy.l2caches.avgBlocked::no_wbuffers          nan                       # average number of cycles each access was blocked ((Cycle/Count))
board.cache_hierarchy.l2caches.avgBlocked::no_targets          nan                       # average number of cycles each access was blocked ((Cycle/Count))
board.cache_hierarchy.l2caches.writebacks::writebacks      1093637                       # number of writebacks (Count)
board.cache_hierarchy.l2caches.writebacks::total      1093637                       # number of writebacks (Count)
board.cache_hierarchy.l2caches.demandMshrHits::processor.switch.core.inst            2                       # number of demand (read+write) MSHR hits (Count)
board.cache_hierarchy.l2caches.demandMshrHits::total            2                       # number of demand (read+write) MSHR hits (Count)
board.cache_hierarchy.l2caches.overallMshrHits::processor.switch.core.inst            2                       # number of overall MSHR hits (Count)
board.cache_hierarchy.l2caches.overallMshrHits::total            2                       # number of overall MSHR hits (Count)
board.cache_hierarchy.l2caches.demandMshrMisses::cache_hierarchy.l1dcaches.prefetcher      1081557                       # number of demand (read+write) MSHR misses (Count)
board.cache_hierarchy.l2caches.demandMshrMisses::processor.switch.core.inst         2306                       # number of demand (read+write) MSHR misses (Count)
board.cache_hierarchy.l2caches.demandMshrMisses::processor.switch.core.data       431585                       # number of demand (read+write) MSHR misses (Count)
board.cache_hierarchy.l2caches.demandMshrMisses::total      1515448                       # number of demand (read+write) MSHR misses (Count)
board.cache_hierarchy.l2caches.overallMshrMisses::cache_hierarchy.l1dcaches.prefetcher      1081557                       # number of overall MSHR misses (Count)
board.cache_hierarchy.l2caches.overallMshrMisses::processor.switch.core.inst         2306                       # number of overall MSHR misses (Count)
board.cache_hierarchy.l2caches.overallMshrMisses::processor.switch.core.data       431585                       # number of overall MSHR misses (Count)
board.cache_hierarchy.l2caches.overallMshrMisses::total      1515448                       # number of overall MSHR misses (Count)
board.cache_hierarchy.l2caches.demandMshrMissLatency::cache_hierarchy.l1dcaches.prefetcher  32252990063                       # number of demand (read+write) MSHR miss ticks (Tick)
board.cache_hierarchy.l2caches.demandMshrMissLatency::processor.switch.core.inst    109468750                       # number of demand (read+write) MSHR miss ticks (Tick)
board.cache_hierarchy.l2caches.demandMshrMissLatency::processor.switch.core.data  13297442250                       # number of demand (read+write) MSHR miss ticks (Tick)
board.cache_hierarchy.l2caches.demandMshrMissLatency::total  45659901063                       # number of demand (read+write) MSHR miss ticks (Tick)
board.cache_hierarchy.l2caches.overallMshrMissLatency::cache_hierarchy.l1dcaches.prefetcher  32252990063                       # number of overall MSHR miss ticks (Tick)
board.cache_hierarchy.l2caches.overallMshrMissLatency::processor.switch.core.inst    109468750                       # number of overall MSHR miss ticks (Tick)
board.cache_hierarchy.l2caches.overallMshrMissLatency::processor.switch.core.data  13297442250                       # number of overall MSHR miss ticks (Tick)
board.cache_hierarchy.l2caches.overallMshrMissLatency::total  45659901063                       # number of overall MSHR miss ticks (Tick)
board.cache_hierarchy.l2caches.demandMshrMissRate::cache_hierarchy.l1dcaches.prefetcher     0.889750                       # mshr miss ratio for demand accesses (Ratio)
board.cache_hierarchy.l2caches.demandMshrMissRate::processor.switch.core.inst     0.996112                       # mshr miss ratio for demand accesses (Ratio)
board.cache_hierarchy.l2caches.demandMshrMissRate::processor.switch.core.data     0.505801                       # mshr miss ratio for demand accesses (Ratio)
board.cache_hierarchy.l2caches.demandMshrMissRate::total     0.731691                       # mshr miss ratio for demand accesses (Ratio)
board.cache_hierarchy.l2caches.overallMshrMissRate::cache_hierarchy.l1dcaches.prefetcher     0.889750                       # mshr miss ratio for overall accesses (Ratio)
board.cache_hierarchy.l2caches.overallMshrMissRate::processor.switch.core.inst     0.996112                       # mshr miss ratio for overall accesses (Ratio)
board.cache_hierarchy.l2caches.overallMshrMissRate::processor.switch.core.data     0.505801                       # mshr miss ratio for overall accesses (Ratio)
board.cache_hierarchy.l2caches.overallMshrMissRate::total     0.731691                       # mshr miss ratio for overall accesses (Ratio)
board.cache_hierarchy.l2caches.demandAvgMshrMissLatency::cache_hierarchy.l1dcaches.prefetcher 29820.887908                       # average overall mshr miss latency ((Tick/Count))
board.cache_hierarchy.l2caches.demandAvgMshrMissLatency::processor.switch.core.inst 47471.270598                       # average overall mshr miss latency ((Tick/Count))
board.cache_hierarchy.l2caches.demandAvgMshrMissLatency::processor.switch.core.data 30810.714575                       # average overall mshr miss latency ((Tick/Count))
board.cache_hierarchy.l2caches.demandAvgMshrMissLatency::total 30129.638934                       # average overall mshr miss latency ((Tick/Count))
board.cache_hierarchy.l2caches.overallAvgMshrMissLatency::cache_hierarchy.l1dcaches.prefetcher 29820.887908                       # average overall mshr miss latency ((Tick/Count))
board.cache_hierarchy.l2caches.overallAvgMshrMissLatency::processor.switch.core.inst 47471.270598                       # average overall mshr miss latency ((Tick/Count))
board.cache_hierarchy.l2caches.overallAvgMshrMissLatency::processor.switch.core.data 30810.714575                       # average overall mshr miss latency ((Tick/Count))
board.cache_hierarchy.l2caches.overallAvgMshrMissLatency::total 30129.638934                       # average overall mshr miss latency ((Tick/Count))
board.cache_hierarchy.l2caches.replacements      1515482                       # number of replacements (Count)
board.cache_hierarchy.l2caches.CleanEvict.mshrMisses::writebacks         2302                       # number of CleanEvict MSHR misses (Count)
board.cache_hierarchy.l2caches.CleanEvict.mshrMisses::total         2302                       # number of CleanEvict MSHR misses (Count)
board.cache_hierarchy.l2caches.CleanEvict.mshrMissRate::writebacks          inf                       # mshr miss rate for CleanEvict accesses (Ratio)
board.cache_hierarchy.l2caches.CleanEvict.mshrMissRate::total          inf                       # mshr miss rate for CleanEvict accesses (Ratio)
board.cache_hierarchy.l2caches.ReadExReq.hits::processor.switch.core.data       124084                       # number of ReadExReq hits (Count)
board.cache_hierarchy.l2caches.ReadExReq.hits::total       124084                       # number of ReadExReq hits (Count)
board.cache_hierarchy.l2caches.ReadExReq.misses::processor.switch.core.data        97515                       # number of ReadExReq misses (Count)
board.cache_hierarchy.l2caches.ReadExReq.misses::total        97515                       # number of ReadExReq misses (Count)
board.cache_hierarchy.l2caches.ReadExReq.missLatency::processor.switch.core.data   3209456000                       # number of ReadExReq miss ticks (Tick)
board.cache_hierarchy.l2caches.ReadExReq.missLatency::total   3209456000                       # number of ReadExReq miss ticks (Tick)
board.cache_hierarchy.l2caches.ReadExReq.accesses::processor.switch.core.data       221599                       # number of ReadExReq accesses(hits+misses) (Count)
board.cache_hierarchy.l2caches.ReadExReq.accesses::total       221599                       # number of ReadExReq accesses(hits+misses) (Count)
board.cache_hierarchy.l2caches.ReadExReq.missRate::processor.switch.core.data     0.440052                       # miss rate for ReadExReq accesses (Ratio)
board.cache_hierarchy.l2caches.ReadExReq.missRate::total     0.440052                       # miss rate for ReadExReq accesses (Ratio)
board.cache_hierarchy.l2caches.ReadExReq.avgMissLatency::processor.switch.core.data 32912.433985                       # average ReadExReq miss latency ((Tick/Count))
board.cache_hierarchy.l2caches.ReadExReq.avgMissLatency::total 32912.433985                       # average ReadExReq miss latency ((Tick/Count))
board.cache_hierarchy.l2caches.ReadExReq.mshrMisses::processor.switch.core.data        97515                       # number of ReadExReq MSHR misses (Count)
board.cache_hierarchy.l2caches.ReadExReq.mshrMisses::total        97515                       # number of ReadExReq MSHR misses (Count)
board.cache_hierarchy.l2caches.ReadExReq.mshrMissLatency::processor.switch.core.data   3185077250                       # number of ReadExReq MSHR miss ticks (Tick)
board.cache_hierarchy.l2caches.ReadExReq.mshrMissLatency::total   3185077250                       # number of ReadExReq MSHR miss ticks (Tick)
board.cache_hierarchy.l2caches.ReadExReq.mshrMissRate::processor.switch.core.data     0.440052                       # mshr miss rate for ReadExReq accesses (Ratio)
board.cache_hierarchy.l2caches.ReadExReq.mshrMissRate::total     0.440052                       # mshr miss rate for ReadExReq accesses (Ratio)
board.cache_hierarchy.l2caches.ReadExReq.avgMshrMissLatency::processor.switch.core.data 32662.433985                       # average ReadExReq mshr miss latency ((Tick/Count))
board.cache_hierarchy.l2caches.ReadExReq.avgMshrMissLatency::total 32662.433985                       # average ReadExReq mshr miss latency ((Tick/Count))
board.cache_hierarchy.l2caches.ReadSharedReq.hits::cache_hierarchy.l1dcaches.prefetcher       134017                       # number of ReadSharedReq hits (Count)
board.cache_hierarchy.l2caches.ReadSharedReq.hits::processor.switch.core.inst            7                       # number of ReadSharedReq hits (Count)
board.cache_hierarchy.l2caches.ReadSharedReq.hits::processor.switch.core.data       297601                       # number of ReadSharedReq hits (Count)
board.cache_hierarchy.l2caches.ReadSharedReq.hits::total       431625                       # number of ReadSharedReq hits (Count)
board.cache_hierarchy.l2caches.ReadSharedReq.misses::cache_hierarchy.l1dcaches.prefetcher      1081557                       # number of ReadSharedReq misses (Count)
board.cache_hierarchy.l2caches.ReadSharedReq.misses::processor.switch.core.inst         2308                       # number of ReadSharedReq misses (Count)
board.cache_hierarchy.l2caches.ReadSharedReq.misses::processor.switch.core.data       334070                       # number of ReadSharedReq misses (Count)
board.cache_hierarchy.l2caches.ReadSharedReq.misses::total      1417935                       # number of ReadSharedReq misses (Count)
board.cache_hierarchy.l2caches.ReadSharedReq.missLatency::cache_hierarchy.l1dcaches.prefetcher  32523379313                       # number of ReadSharedReq miss ticks (Tick)
board.cache_hierarchy.l2caches.ReadSharedReq.missLatency::processor.switch.core.inst    110068250                       # number of ReadSharedReq miss ticks (Tick)
board.cache_hierarchy.l2caches.ReadSharedReq.missLatency::processor.switch.core.data  10195882000                       # number of ReadSharedReq miss ticks (Tick)
board.cache_hierarchy.l2caches.ReadSharedReq.missLatency::total  42829329563                       # number of ReadSharedReq miss ticks (Tick)
board.cache_hierarchy.l2caches.ReadSharedReq.accesses::cache_hierarchy.l1dcaches.prefetcher      1215574                       # number of ReadSharedReq accesses(hits+misses) (Count)
board.cache_hierarchy.l2caches.ReadSharedReq.accesses::processor.switch.core.inst         2315                       # number of ReadSharedReq accesses(hits+misses) (Count)
board.cache_hierarchy.l2caches.ReadSharedReq.accesses::processor.switch.core.data       631671                       # number of ReadSharedReq accesses(hits+misses) (Count)
board.cache_hierarchy.l2caches.ReadSharedReq.accesses::total      1849560                       # number of ReadSharedReq accesses(hits+misses) (Count)
board.cache_hierarchy.l2caches.ReadSharedReq.missRate::cache_hierarchy.l1dcaches.prefetcher     0.889750                       # miss rate for ReadSharedReq accesses (Ratio)
board.cache_hierarchy.l2caches.ReadSharedReq.missRate::processor.switch.core.inst     0.996976                       # miss rate for ReadSharedReq accesses (Ratio)
board.cache_hierarchy.l2caches.ReadSharedReq.missRate::processor.switch.core.data     0.528867                       # miss rate for ReadSharedReq accesses (Ratio)
board.cache_hierarchy.l2caches.ReadSharedReq.missRate::total     0.766634                       # miss rate for ReadSharedReq accesses (Ratio)
board.cache_hierarchy.l2caches.ReadSharedReq.avgMissLatency::cache_hierarchy.l1dcaches.prefetcher 30070.887908                       # average ReadSharedReq miss latency ((Tick/Count))
board.cache_hierarchy.l2caches.ReadSharedReq.avgMissLatency::processor.switch.core.inst 47689.883016                       # average ReadSharedReq miss latency ((Tick/Count))
board.cache_hierarchy.l2caches.ReadSharedReq.avgMissLatency::processor.switch.core.data 30520.196366                       # average ReadSharedReq miss latency ((Tick/Count))
board.cache_hierarchy.l2caches.ReadSharedReq.avgMissLatency::total 30205.425187                       # average ReadSharedReq miss latency ((Tick/Count))
board.cache_hierarchy.l2caches.ReadSharedReq.mshrHits::processor.switch.core.inst            2                       # number of ReadSharedReq MSHR hits (Count)
board.cache_hierarchy.l2caches.ReadSharedReq.mshrHits::total            2                       # number of ReadSharedReq MSHR hits (Count)
board.cache_hierarchy.l2caches.ReadSharedReq.mshrMisses::cache_hierarchy.l1dcaches.prefetcher      1081557                       # number of ReadSharedReq MSHR misses (Count)
board.cache_hierarchy.l2caches.ReadSharedReq.mshrMisses::processor.switch.core.inst         2306                       # number of ReadSharedReq MSHR misses (Count)
board.cache_hierarchy.l2caches.ReadSharedReq.mshrMisses::processor.switch.core.data       334070                       # number of ReadSharedReq MSHR misses (Count)
board.cache_hierarchy.l2caches.ReadSharedReq.mshrMisses::total      1417933                       # number of ReadSharedReq MSHR misses (Count)
board.cache_hierarchy.l2caches.ReadSharedReq.mshrMissLatency::cache_hierarchy.l1dcaches.prefetcher  32252990063                       # number of ReadSharedReq MSHR miss ticks (Tick)
board.cache_hierarchy.l2caches.ReadSharedReq.mshrMissLatency::processor.switch.core.inst    109468750                       # number of ReadSharedReq MSHR miss ticks (Tick)
board.cache_hierarchy.l2caches.ReadSharedReq.mshrMissLatency::processor.switch.core.data  10112365000                       # number of ReadSharedReq MSHR miss ticks (Tick)
board.cache_hierarchy.l2caches.ReadSharedReq.mshrMissLatency::total  42474823813                       # number of ReadSharedReq MSHR miss ticks (Tick)
board.cache_hierarchy.l2caches.ReadSharedReq.mshrMissRate::cache_hierarchy.l1dcaches.prefetcher     0.889750                       # mshr miss rate for ReadSharedReq accesses (Ratio)
board.cache_hierarchy.l2caches.ReadSharedReq.mshrMissRate::processor.switch.core.inst     0.996112                       # mshr miss rate for ReadSharedReq accesses (Ratio)
board.cache_hierarchy.l2caches.ReadSharedReq.mshrMissRate::processor.switch.core.data     0.528867                       # mshr miss rate for ReadSharedReq accesses (Ratio)
board.cache_hierarchy.l2caches.ReadSharedReq.mshrMissRate::total     0.766633                       # mshr miss rate for ReadSharedReq accesses (Ratio)
board.cache_hierarchy.l2caches.ReadSharedReq.avgMshrMissLatency::cache_hierarchy.l1dcaches.prefetcher 29820.887908                       # average ReadSharedReq mshr miss latency ((Tick/Count))
board.cache_hierarchy.l2caches.ReadSharedReq.avgMshrMissLatency::processor.switch.core.inst 47471.270598                       # average ReadSharedReq mshr miss latency ((Tick/Count))
board.cache_hierarchy.l2caches.ReadSharedReq.avgMshrMissLatency::processor.switch.core.data 30270.197863                       # average ReadSharedReq mshr miss latency ((Tick/Count))
board.cache_hierarchy.l2caches.ReadSharedReq.avgMshrMissLatency::total 29955.451924                       # average ReadSharedReq mshr miss latency ((Tick/Count))
board.cache_hierarchy.l2caches.UpgradeReq.hits::processor.switch.core.data       516508                       # number of UpgradeReq hits (Count)
board.cache_hierarchy.l2caches.UpgradeReq.hits::total       516508                       # number of UpgradeReq hits (Count)
board.cache_hierarchy.l2caches.UpgradeReq.misses::processor.switch.core.data            3                       # number of UpgradeReq misses (Count)
board.cache_hierarchy.l2caches.UpgradeReq.misses::total            3                       # number of UpgradeReq misses (Count)
board.cache_hierarchy.l2caches.UpgradeReq.missLatency::processor.switch.core.data        16750                       # number of UpgradeReq miss ticks (Tick)
board.cache_hierarchy.l2caches.UpgradeReq.missLatency::total        16750                       # number of UpgradeReq miss ticks (Tick)
board.cache_hierarchy.l2caches.UpgradeReq.accesses::processor.switch.core.data       516511                       # number of UpgradeReq accesses(hits+misses) (Count)
board.cache_hierarchy.l2caches.UpgradeReq.accesses::total       516511                       # number of UpgradeReq accesses(hits+misses) (Count)
board.cache_hierarchy.l2caches.UpgradeReq.missRate::processor.switch.core.data     0.000006                       # miss rate for UpgradeReq accesses (Ratio)
board.cache_hierarchy.l2caches.UpgradeReq.missRate::total     0.000006                       # miss rate for UpgradeReq accesses (Ratio)
board.cache_hierarchy.l2caches.UpgradeReq.avgMissLatency::processor.switch.core.data  5583.333333                       # average UpgradeReq miss latency ((Tick/Count))
board.cache_hierarchy.l2caches.UpgradeReq.avgMissLatency::total  5583.333333                       # average UpgradeReq miss latency ((Tick/Count))
board.cache_hierarchy.l2caches.UpgradeReq.mshrMisses::processor.switch.core.data            3                       # number of UpgradeReq MSHR misses (Count)
board.cache_hierarchy.l2caches.UpgradeReq.mshrMisses::total            3                       # number of UpgradeReq MSHR misses (Count)
board.cache_hierarchy.l2caches.UpgradeReq.mshrMissLatency::processor.switch.core.data        47500                       # number of UpgradeReq MSHR miss ticks (Tick)
board.cache_hierarchy.l2caches.UpgradeReq.mshrMissLatency::total        47500                       # number of UpgradeReq MSHR miss ticks (Tick)
board.cache_hierarchy.l2caches.UpgradeReq.mshrMissRate::processor.switch.core.data     0.000006                       # mshr miss rate for UpgradeReq accesses (Ratio)
board.cache_hierarchy.l2caches.UpgradeReq.mshrMissRate::total     0.000006                       # mshr miss rate for UpgradeReq accesses (Ratio)
board.cache_hierarchy.l2caches.UpgradeReq.avgMshrMissLatency::processor.switch.core.data 15833.333333                       # average UpgradeReq mshr miss latency ((Tick/Count))
board.cache_hierarchy.l2caches.UpgradeReq.avgMshrMissLatency::total 15833.333333                       # average UpgradeReq mshr miss latency ((Tick/Count))
board.cache_hierarchy.l2caches.WritebackDirty.hits::writebacks      1333420                       # number of WritebackDirty hits (Count)
board.cache_hierarchy.l2caches.WritebackDirty.hits::total      1333420                       # number of WritebackDirty hits (Count)
board.cache_hierarchy.l2caches.WritebackDirty.accesses::writebacks      1333420                       # number of WritebackDirty accesses(hits+misses) (Count)
board.cache_hierarchy.l2caches.WritebackDirty.accesses::total      1333420                       # number of WritebackDirty accesses(hits+misses) (Count)
board.cache_hierarchy.l2caches.power_state.pwrStateResidencyTicks::UNDEFINED  39535903250                       # Cumulative time (in ticks) in various power states (Tick)
board.cache_hierarchy.l2caches.tags.tagsInUse        16384                       # Average ticks per tags in use ((Tick/Count))
board.cache_hierarchy.l2caches.tags.totalRefs      4655074                       # Total number of references to valid blocks. (Count)
board.cache_hierarchy.l2caches.tags.sampledRefs      1515482                       # Sample count of references to valid blocks. (Count)
board.cache_hierarchy.l2caches.tags.avgRefs     3.071679                       # Average number of references to valid blocks. ((Count/Count))
board.cache_hierarchy.l2caches.tags.warmupTick            0                       # The tick when the warmup percentage was hit. (Tick)
board.cache_hierarchy.l2caches.tags.occupancies::writebacks     0.523674                       # Average occupied blocks per tick, per requestor ((Count/Tick))
board.cache_hierarchy.l2caches.tags.occupancies::cache_hierarchy.l1dcaches.prefetcher 11254.488251                       # Average occupied blocks per tick, per requestor ((Count/Tick))
board.cache_hierarchy.l2caches.tags.occupancies::processor.switch.core.inst    28.544465                       # Average occupied blocks per tick, per requestor ((Count/Tick))
board.cache_hierarchy.l2caches.tags.occupancies::processor.switch.core.data  5100.443610                       # Average occupied blocks per tick, per requestor ((Count/Tick))
board.cache_hierarchy.l2caches.tags.avgOccs::writebacks     0.000032                       # Average percentage of cache occupancy ((Ratio/Tick))
board.cache_hierarchy.l2caches.tags.avgOccs::cache_hierarchy.l1dcaches.prefetcher     0.686919                       # Average percentage of cache occupancy ((Ratio/Tick))
board.cache_hierarchy.l2caches.tags.avgOccs::processor.switch.core.inst     0.001742                       # Average percentage of cache occupancy ((Ratio/Tick))
[...]
board.processor.switch.core.fetchStats0.numInsts    108338512                       # Number of instructions fetched (thread level) (Count)
board.processor.switch.core.fetchStats0.numOps            0                       # Number of ops (including micro ops) fetched (thread level) (Count)
board.processor.switch.core.fetchStats0.fetchRate     0.560030                       # Number of inst fetches per cycle ((Count/Cycle))
board.processor.switch.core.fetchStats0.numBranches     22084086                       # Number of branches fetched (Count)
board.processor.switch.core.fetchStats0.branchRate     0.114158                       # Number of branch fetches per cycle (Ratio)
board.processor.switch.core.fetchStats0.icacheStallCycles     91297696                       # ICache total stall cycles (Cycle)
board.processor.switch.core.fetchStats0.numFetchSuspends            0                       # Number of times Execute suspended instruction fetching (Count)
board.processor.switch.core.ftq.inserts             0                       # The number of FTQ insertions (Count)
board.processor.switch.core.ftq.removals            0                       # The number of FTQ removals. Not including squashes (Count)
board.processor.switch.core.ftq.squashes            0                       # The number of FTQ squashes (Count)
board.processor.switch.core.ftq.locks               0                       # The number of times the FTQ got locked. (Count)
board.processor.switch.core.ftq.occupancy::samples            0                       # Distribution of the FTQ occupation. (Count)
board.processor.switch.core.ftq.occupancy::mean          nan                       # Distribution of the FTQ occupation. (Count)
board.processor.switch.core.ftq.occupancy::stdev          nan                       # Distribution of the FTQ occupation. (Count)
board.processor.switch.core.ftq.occupancy::underflows            0                       # Distribution of the FTQ occupation. (Count)
board.processor.switch.core.ftq.occupancy::0-3            0                       # Distribution of the FTQ occupation. (Count)
board.processor.switch.core.ftq.occupancy::4-7            0                       # Distribution of the FTQ occupation. (Count)
board.processor.switch.core.ftq.occupancy::8            0                       # Distribution of the FTQ occupation. (Count)
board.processor.switch.core.ftq.occupancy::overflows            0                       # Distribution of the FTQ occupation. (Count)
board.processor.switch.core.ftq.occupancy::min_value            0                       # Distribution of the FTQ occupation. (Count)
board.processor.switch.core.ftq.occupancy::max_value            0                       # Distribution of the FTQ occupation. (Count)
board.processor.switch.core.ftq.occupancy::total            0                       # Distribution of the FTQ occupation. (Count)
board.processor.switch.core.iew.dispatchStatus::running    169901256     87.85%     87.85% # Number of cycles dispatch is running (Cycle)
board.processor.switch.core.iew.dispatchStatus::blocked     17635846      9.12%     96.97% # Number of cycles dispatch is blocked (Cycle)
board.processor.switch.core.iew.dispatchStatus::squashing      2726159      1.41%     98.38% # Number of cycles dispatch is squashing (Cycle)
board.processor.switch.core.iew.dispatchStatus::unblocking      3128598      1.62%    100.00% # Number of cycles dispatch is unblocking (Cycle)
board.processor.switch.core.iew.dispatchedInsts    144384591                       # Number of instructions dispatched to IQ (Count)
board.processor.switch.core.iew.dispSquashedInsts     19227817                       # Number of squashed instructions skipped by dispatch (Count)
board.processor.switch.core.iew.dispLoadInsts     20057702                       # Number of dispatched load instructions (Count)
board.processor.switch.core.iew.dispStoreInsts      5879258                       # Number of dispatched store instructions (Count)
board.processor.switch.core.iew.dispNonSpecInsts            0                       # Number of dispatched non-speculative instructions (Count)
board.processor.switch.core.iew.iqFullEvents        67459                       # Number of times the IQ has become full, causing a stall (Count)
board.processor.switch.core.iew.lsqFullEvents      2978699                       # Number of times the LSQ has become full, causing a stall (Count)
board.processor.switch.core.iew.memOrderViolationEvents         1067                       # Number of memory order violations (Count)
board.processor.switch.core.iew.predictedTakenIncorrect       313124                       # Number of branches that were predicted taken incorrectly (Count)
board.processor.switch.core.iew.predictedNotTakenIncorrect      4118917                       # Number of branches that were predicted not taken incorrectly (Count)
board.processor.switch.core.iew.branchMispredicts      4432041                       # Number of branch mispredicts detected at execute (Count)
board.processor.switch.core.iew.instsToCommit    131801616                       # Cumulative count of insts sent to commit (Count)
board.processor.switch.core.iew.writebackCount    131423601                       # Cumulative count of insts written-back (Count)
board.processor.switch.core.iew.producerInst     84451329                       # Number of instructions producing a value (Count)
board.processor.switch.core.iew.consumerInst    116255462                       # Number of instructions consuming a value (Count)
board.processor.switch.core.iew.wbRate       0.679363                       # Insts written-back per cycle ((Count/Cycle))
board.processor.switch.core.iew.wbFanout     0.726429                       # Average fanout of values written-back ((Count/Count))
board.processor.switch.core.lsq0.forwLoads       341615                       # Number of loads that had data forwarded from stores (Count)
board.processor.switch.core.lsq0.squashedLoads      8615052                       # Number of loads squashed (Count)
board.processor.switch.core.lsq0.ignoredResponses         2151                       # Number of memory responses ignored because the instruction is squashed (Count)
board.processor.switch.core.lsq0.memOrderViolation         1067                       # Number of memory ordering violations (Count)
board.processor.switch.core.lsq0.squashedStores      2482297                       # Number of stores squashed (Count)
board.processor.switch.core.lsq0.rescheduledLoads           56                       # Number of loads that were rescheduled (Count)
board.processor.switch.core.lsq0.blockedByCache          105                       # Number of times an access to memory failed due to the cache being blocked (Count)
board.processor.switch.core.lsq0.loadToUse::samples     11442653                       # Distribution of cycle latency between the first time a load is issued and its completion (Cycle)
board.processor.switch.core.lsq0.loadToUse::mean    20.735655                       # Distribution of cycle latency between the first time a load is issued and its completion (Cycle)
board.processor.switch.core.lsq0.loadToUse::stdev    68.087033                       # Distribution of cycle latency between the first time a load is issued and its completion (Cycle)
board.processor.switch.core.lsq0.loadToUse::0-9     10018538     87.55%     87.55% # Distribution of cycle latency between the first time a load is issued and its completion (Cycle)
board.processor.switch.core.lsq0.loadToUse::10-19        39054      0.34%     87.90% # Distribution of cycle latency between the first time a load is issued and its completion (Cycle)
board.processor.switch.core.lsq0.loadToUse::20-29       366741      3.21%     91.10% # Distribution of cycle latency between the first time a load is issued and its completion (Cycle)
board.processor.switch.core.lsq0.loadToUse::30-39        23561      0.21%     91.31% # Distribution of cycle latency between the first time a load is issued and its completion (Cycle)
board.processor.switch.core.lsq0.loadToUse::40-49        23266      0.20%     91.51% # Distribution of cycle latency between the first time a load is issued and its completion (Cycle)
board.processor.switch.core.lsq0.loadToUse::50-59        16922      0.15%     91.66% # Distribution of cycle latency between the first time a load is issued and its completion (Cycle)
board.processor.switch.core.lsq0.loadToUse::60-69        15012      0.13%     91.79% # Distribution of cycle latency between the first time a load is issued and its completion (Cycle)
board.processor.switch.core.lsq0.loadToUse::70-79       397046      3.47%     95.26% # Distribution of cycle latency between the first time a load is issued and its completion (Cycle)
board.processor.switch.core.lsq0.loadToUse::80-89         7819      0.07%     95.33% # Distribution of cycle latency between the first time a load is issued and its completion (Cycle)
board.processor.switch.core.lsq0.loadToUse::90-99         7531      0.07%     95.39% # Distribution of cycle latency between the first time a load is issued and its completion (Cycle)
board.processor.switch.core.lsq0.loadToUse::100-109         7627      0.07%     95.46% # Distribution of cycle latency between the first time a load is issued and its completion (Cycle)
board.processor.switch.core.lsq0.loadToUse::110-119         9649      0.08%     95.54% # Distribution of cycle latency between the first time a load is issued and its completion (Cycle)
board.processor.switch.core.lsq0.loadToUse::120-129         8469      0.07%     95.62% # Distribution of cycle latency between the first time a load is issued and its completion (Cycle)
board.processor.switch.core.lsq0.loadToUse::130-139         7131      0.06%     95.68% # Distribution of cycle latency between the first time a load is issued and its completion (Cycle)
board.processor.switch.core.lsq0.loadToUse::140-149         8882      0.08%     95.76% # Distribution of cycle latency between the first time a load is issued and its completion (Cycle)
board.processor.switch.core.lsq0.loadToUse::150-159         7529      0.07%     95.82% # Distribution of cycle latency between the first time a load is issued and its completion (Cycle)
board.processor.switch.core.lsq0.loadToUse::160-169         7937      0.07%     95.89% # Distribution of cycle latency between the first time a load is issued and its completion (Cycle)
board.processor.switch.core.lsq0.loadToUse::170-179        12013      0.10%     96.00% # Distribution of cycle latency between the first time a load is issued and its completion (Cycle)
board.processor.switch.core.lsq0.loadToUse::180-189        10252      0.09%     96.09% # Distribution of cycle latency between the first time a load is issued and its completion (Cycle)
board.processor.switch.core.lsq0.loadToUse::190-199        10226      0.09%     96.18% # Distribution of cycle latency between the first time a load is issued and its completion (Cycle)
board.processor.switch.core.lsq0.loadToUse::200-209         9841      0.09%     96.26% # Distribution of cycle latency between the first time a load is issued and its completion (Cycle)
board.processor.switch.core.lsq0.loadToUse::210-219        14000      0.12%     96.39% # Distribution of cycle latency between the first time a load is issued and its completion (Cycle)
board.processor.switch.core.lsq0.loadToUse::220-229        29111      0.25%     96.64% # Distribution of cycle latency between the first time a load is issued and its completion (Cycle)
board.processor.switch.core.lsq0.loadToUse::230-239       132442      1.16%     97.80% # Distribution of cycle latency between the first time a load is issued and its completion (Cycle)
board.processor.switch.core.lsq0.loadToUse::240-249        18329      0.16%     97.96% # Distribution of cycle latency between the first time a load is issued and its completion (Cycle)
board.processor.switch.core.lsq0.loadToUse::250-259        31529      0.28%     98.23% # Distribution of cycle latency between the first time a load is issued and its completion (Cycle)
board.processor.switch.core.lsq0.loadToUse::260-269         7072      0.06%     98.29% # Distribution of cycle latency between the first time a load is issued and its completion (Cycle)
board.processor.switch.core.lsq0.loadToUse::270-279         7505      0.07%     98.36% # Distribution of cycle latency between the first time a load is issued and its completion (Cycle)
board.processor.switch.core.lsq0.loadToUse::280-289        58173      0.51%     98.87% # Distribution of cycle latency between the first time a load is issued and its completion (Cycle)
board.processor.switch.core.lsq0.loadToUse::290-299         8022      0.07%     98.94% # Distribution of cycle latency between the first time a load is issued and its completion (Cycle)
board.processor.switch.core.lsq0.loadToUse::overflows       121424      1.06%    100.00% # Distribution of cycle latency between the first time a load is issued and its completion (Cycle)
board.processor.switch.core.lsq0.loadToUse::min_value            2                       # Distribution of cycle latency between the first time a load is issued and its completion (Cycle)
board.processor.switch.core.lsq0.loadToUse::max_value         2387                       # Distribution of cycle latency between the first time a load is issued and its completion (Cycle)
board.processor.switch.core.lsq0.loadToUse::total     11442653                       # Distribution of cycle latency between the first time a load is issued and its completion (Cycle)
board.processor.switch.core.lsq0.addedLoadsAndStores     25936960                       # Number of loads and stores written to the Load Store Queue (Count)
board.processor.switch.core.lsq0.lqAvgOccupancy         0.11                       # Average LQ Occupancy (UsedSlots/TotalSlots) (Ratio)
board.processor.switch.core.lsq0.sqAvgOccupancy         0.10                       # Average SQ Occupancy (UsedSlots/TotalSlots) (Ratio)
board.processor.switch.core.mmu.dtb.rdAccesses     19216065                       # TLB accesses on read requests (Count)
board.processor.switch.core.mmu.dtb.wrAccesses      4295654                       # TLB accesses on write requests (Count)
board.processor.switch.core.mmu.dtb.exAccesses            0                       # TLB accesses on execute (instr) requests (Count)
board.processor.switch.core.mmu.dtb.rdMisses       191692                       # TLB misses on read requests (Count)
board.processor.switch.core.mmu.dtb.wrMisses        18262                       # TLB misses on write requests (Count)
board.processor.switch.core.mmu.dtb.exMisses            0                       # TLB misses on execute (instr) requests (Count)
board.processor.switch.core.mmu.dtb.walker.power_state.pwrStateResidencyTicks::UNDEFINED  48362825000                       # Cumulative time (in ticks) in various power states (Tick)
board.processor.switch.core.mmu.itb.rdAccesses            0                       # TLB accesses on read requests (Count)
board.processor.switch.core.mmu.itb.wrAccesses            0                       # TLB accesses on write requests (Count)
board.processor.switch.core.mmu.itb.exAccesses     31353373                       # TLB accesses on execute (instr) requests (Count)
board.processor.switch.core.mmu.itb.rdMisses            0                       # TLB misses on read requests (Count)
board.processor.switch.core.mmu.itb.wrMisses            0                       # TLB misses on write requests (Count)
board.processor.switch.core.mmu.itb.exMisses            6                       # TLB misses on execute (instr) requests (Count)
board.processor.switch.core.mmu.itb.walker.power_state.pwrStateResidencyTicks::UNDEFINED  48362825000                       # Cumulative time (in ticks) in various power states (Tick)
board.processor.switch.core.power_state.pwrStateResidencyTicks::OFF  48362825000                       # Cumulative time (in ticks) in various power states (Tick)
board.processor.switch.core.rename.status::Running     49961939     25.83%     25.83% # Number of cycles rename is running (Cycle)
board.processor.switch.core.rename.status::Idle     86248482     44.60%     70.43% # Number of cycles rename is idle (Cycle)
board.processor.switch.core.rename.status::Squashing      2726159      1.41%     71.84% # Number of cycles rename is squashing (Cycle)
board.processor.switch.core.rename.status::Blocked     44699781     23.11%     94.96% # Number of cycles rename is blocking (Cycle)
board.processor.switch.core.rename.status::Unblocking      9755498      5.04%    100.00% # Number of cycles rename is unblocking (Cycle)
board.processor.switch.core.rename.renamedInsts    170578792                       # Number of instructions processed by rename (Count)
board.processor.switch.core.rename.ROBFullEvents       971836                       # Number of times rename has blocked due to ROB full (Count)
board.processor.switch.core.rename.IQFullEvents       742241                       # Number of times rename has blocked due to IQ full (Count)
board.processor.switch.core.rename.SQFullEvents      7509620                       # Number of times rename has blocked due to SQ full (Count)
board.processor.switch.core.rename.fullRegistersEvents       121881                       # Number of times there has been no free registers (Count)
board.processor.switch.core.rename.renamedOperands    277813910                       # Number of destination operands rename has renamed (Count)
board.processor.switch.core.rename.lookups    529268159                       # Number of register rename lookups that rename has made (Count)
board.processor.switch.core.rename.intLookups    159173122                       # Number of integer rename lookups (Count)
board.processor.switch.core.rename.fpLookups     39505522                       # Number of floating rename lookups (Count)
board.processor.switch.core.rename.committedMaps    151635264                       # Number of HB maps that are committed (Count)
board.processor.switch.core.rename.undoneMaps    126178683                       # Number of HB maps that are undone due to squashing (Count)
board.processor.switch.core.rename.serializing            0                       # count of serializing insts renamed (Count)
board.processor.switch.core.rename.tempSerializing            0                       # count of temporary serializing insts renamed (Count)
board.processor.switch.core.rename.skidInsts      6098758                       # count of insts added to the skid buffer (Count)
board.processor.switch.core.rename.intReturned     52829305                       # count of registers freed and written back to integer free list (Count)
board.processor.switch.core.rename.fpReturned     15970145                       # count of registers freed and written back to floating point free list (Count)
board.processor.switch.core.rob.reads       346904488                       # The number of ROB reads (Count)
board.processor.switch.core.rob.writes      346865884                       # The number of ROB writes (Count)
board.processor.switch.core.thread_0.numInsts     50415204                       # Number of Instructions committed (Count)
board.processor.switch.core.thread_0.numOps     92396334                       # Number of Ops committed (Count)
board.processor.switch.core.thread_0.numMemRefs     14839614                       # Number of Memory References (Count)
board.workload.inst.arm                             0                       # number of arm instructions executed (Count)
board.workload.inst.quiesce                         0                       # number of quiesce instructions executed (Count)

---------- End Simulation Statistics   ----------
