
---------- Begin Simulation Statistics ----------
simSeconds                                   0.023369                       # Number of seconds simulated (Second)
simTicks                                  23369173250                       # Number of ticks simulated (Tick)
finalTick                                5845850451750                       # Number of ticks from beginning of simulation (restored from checkpoints and never reset) (Tick)
simFreq                                  1000000000000                       # The number of ticks per simulated second ((Tick/Second))
hostSeconds                                    341.12                       # Real time elapsed on the host (Second)
hostTickRate                                 68506676                       # The number of ticks simulated per host second (ticks/s) ((Tick/Second))
hostMemory                                    3409592                       # Number of bytes of host memory used (Byte)
simInsts                                     52234760                       # Number of instructions simulated (Count)
simOps                                      102682799                       # Number of ops (including micro ops) simulated (Count)
hostInstRate                                   153126                       # Simulator instruction rate (inst/s) ((Count/Second))
hostOpRate                                     301014                       # Simulator op (including micro ops) rate (op/s) ((Count/Second))
board.cache_hierarchy.dptw_caches.blockedCycles::no_mshrs            0                       # number of cycles access was blocked (Cycle)
board.cache_hierarchy.dptw_caches.blockedCycles::no_wbuffers            0                       # number of cycles access was blocked (Cycle)
board.cache_hierarchy.dptw_caches.blockedCycles::no_targets            0                       # number of cycles access was blocked (Cycle)
board.cache_hierarchy.dptw_caches.blockedCauses::no_mshrs            0                       # number of times access was blocked (Count)
board.cache_hierarchy.dptw_caches.blockedCauses::no_wbuffers            0                       # number of times access was blocked (Count)
board.cache_hierarchy.dptw_caches.blockedCauses::no_targets            0                       # number of times access was blocked (Count)
board.cache_hierarchy.dptw_caches.avgBlocked::no_mshrs          nan                       # average number of cycles each access was blocked ((Cycle/Count))
board.cache_hierarchy.dptw_caches.avgBlocked::no_wbuffers          nan                       # average number of cycles each access was blocked ((Cycle/Count))
board.cache_hierarchy.dptw_caches.avgBlocked::no_targets          nan                       # average number of cycles each access was blocked ((Cycle/Count))
board.cache_hierarchy.dptw_caches.replacements            0                       # number of replacements (Count)
board.cache_hierarchy.dptw_caches.power_state.pwrStateResidencyTicks::UNDEFINED  23369173250                       # Cumulative time (in ticks) in various power states (Tick)
board.cache_hierarchy.dptw_caches.tags.tagsInUse            0                       # Average ticks per tags in use ((Tick/Count))
board.cache_hierarchy.dptw_caches.tags.totalRefs            0                       # Total number of references to valid blocks. (Count)
board.cache_hierarchy.dptw_caches.tags.sampledRefs            0                       # Sample count of references to valid blocks. (Count)
board.cache_hierarchy.dptw_caches.tags.avgRefs          nan                       # Average number of references to valid blocks. ((Count/Count))
board.cache_hierarchy.dptw_caches.tags.warmupTick            0                       # The tick when the warmup percentage was hit. (Tick)
board.cache_hierarchy.dptw_caches.tags.tagAccesses            0                       # Number of tag accesses (Count)
board.cache_hierarchy.dptw_caches.tags.dataAccesses            0                       # Number of data accesses (Count)
board.cache_hierarchy.dptw_caches.tags.power_state.pwrStateResidencyTicks::UNDEFINED  23369173250                       # Cumulative time (in ticks) in various power states (Tick)
board.cache_hierarchy.iptw_caches.blockedCycles::no_mshrs            0                       # number of cycles access was blocked (Cycle)
board.cache_hierarchy.iptw_caches.blockedCycles::no_wbuffers            0                       # number of cycles access was blocked (Cycle)
board.cache_hierarchy.iptw_caches.blockedCycles::no_targets            0                       # number of cycles access was blocked (Cycle)
board.cache_hierarchy.iptw_caches.blockedCauses::no_mshrs            0                       # number of times access was blocked (Count)
board.cache_hierarchy.iptw_caches.blockedCauses::no_wbuffers            0                       # number of times access was blocked (Count)
board.cache_hierarchy.iptw_caches.blockedCauses::no_targets            0                       # number of times access was blocked (Count)
board.cache_hierarchy.iptw_caches.avgBlocked::no_mshrs          nan                       # average number of cycles each access was blocked ((Cycle/Count))
board.cache_hierarchy.iptw_caches.avgBlocked::no_wbuffers          nan                       # average number of cycles each access was blocked ((Cycle/Count))
board.cache_hierarchy.iptw_caches.avgBlocked::no_targets          nan                       # average number of cycles each access was blocked ((Cycle/Count))
board.cache_hierarchy.iptw_caches.replacements            0                       # number of replacements (Count)
board.cache_hierarchy.iptw_caches.power_state.pwrStateResidencyTicks::UNDEFINED  23369173250                       # Cumulative time (in ticks) in various power states (Tick)
board.cache_hierarchy.iptw_caches.tags.tagsInUse            0                       # Average ticks per tags in use ((Tick/Count))
board.cache_hierarchy.iptw_caches.tags.totalRefs            0                       # Total number of references to valid blocks. (Count)
board.cache_hierarchy.iptw_caches.tags.sampledRefs            0                       # Sample count of references to valid blocks. (Count)
board.cache_hierarchy.iptw_caches.tags.avgRefs          nan                       # Average number of references to valid blocks. ((Count/Count))
board.cache_hierarchy.iptw_caches.tags.warmupTick            0                       # The tick when the warmup percentage was hit. (Tick)
board.cache_hierarchy.iptw_caches.tags.tagAccesses            0                       # Number of tag accesses (Count)
board.cache_hierarchy.iptw_caches.tags.dataAccesses            0                       # Number of data accesses (Count)
board.cache_hierarchy.iptw_caches.tags.power_state.pwrStateResidencyTicks::UNDEFINED  23369173250                       # Cumulative time (in ticks) in various power states (Tick)
board.cache_hierarchy.l1dcaches.demandHits::processor.switch.core.data     23800729                       # number of demand (read+write) hits (Count)
board.cache_hierarchy.l1dcaches.demandHits::total     23800729                       # number of demand (read+write) hits (Count)
board.cache_hierarchy.l1dcaches.overallHits::processor.switch.core.data     23800729                       # number of overall hits (Count)
board.cache_hierarchy.l1dcaches.overallHits::total     23800729                       # number of overall hits (Count)
board.cache_hierarchy.l1dcaches.demandMisses::processor.switch.core.data           73                       # number of demand (read+write) misses (Count)
board.cache_hierarchy.l1dcaches.demandMisses::total           73                       # number of demand (read+write) misses (Count)
board.cache_hierarchy.l1dcaches.overallMisses::processor.switch.core.data           73                       # number of overall misses (Count)
board.cache_hierarchy.l1dcaches.overallMisses::total           73                       # number of overall misses (Count)
board.cache_hierarchy.l1dcaches.demandMissLatency::processor.switch.core.data      5584500                       # number of demand (read+write) miss ticks (Tick)
board.cache_hierarchy.l1dcaches.demandMissLatency::total      5584500                       # number of demand (read+write) miss ticks (Tick)
board.cache_hierarchy.l1dcaches.overallMissLatency::processor.switch.core.data      5584500                       # number of overall miss ticks (Tick)
board.cache_hierarchy.l1dcaches.overallMissLatency::total      5584500                       # number of overall miss ticks (Tick)
board.cache_hierarchy.l1dcaches.demandAccesses::processor.switch.core.data     23800802                       # number of demand (read+write) accesses (Count)
board.cache_hierarchy.l1dcaches.demandAccesses::total     23800802                       # number of demand (read+write) accesses (Count)
board.cache_hierarchy.l1dcaches.overallAccesses::processor.switch.core.data     23800802                       # number of overall (read+write) accesses (Count)
board.cache_hierarchy.l1dcaches.overallAccesses::total     23800802                       # number of overall (read+write) accesses (Count)
board.cache_hierarchy.l1dcaches.demandMissRate::processor.switch.core.data     0.000003                       # miss rate for demand accesses (Ratio)
board.cache_hierarchy.l1dcaches.demandMissRate::total     0.000003                       # miss rate for demand accesses (Ratio)
board.cache_hierarchy.l1dcaches.overallMissRate::processor.switch.core.data     0.000003                       # miss rate for overall accesses (Ratio)
board.cache_hierarchy.l1dcaches.overallMissRate::total     0.000003                       # miss rate for overall accesses (Ratio)
board.cache_hierarchy.l1dcaches.demandAvgMissLatency::processor.switch.core.data        76500                       # average overall miss latency in ticks ((Tick/Count))
board.cache_hierarchy.l1dcaches.demandAvgMissLatency::total        76500                       # average overall miss latency in ticks ((Tick/Count))
board.cache_hierarchy.l1dcaches.overallAvgMissLatency::processor.switch.core.data        76500                       # average overall miss latency ((Tick/Count))
board.cache_hierarchy.l1dcaches.overallAvgMissLatency::total        76500                       # average overall miss latency ((Tick/Count))
board.cache_hierarchy.l1dcaches.blockedCycles::no_mshrs            0                       # number of cycles access was blocked (Cycle)
board.cache_hierarchy.l1dcaches.blockedCycles::no_wbuffers            0                       # number of cycles access was blocked (Cycle)
board.cache_hierarchy.l1dcaches.blockedCycles::no_targets            0                       # number of cycles access was blocked (Cycle)
board.cache_hierarchy.l1dcaches.blockedCauses::no_mshrs            0                       # number of times access was blocked (Count)
board.cache_hierarchy.l1dcaches.blockedCauses::no_wbuffers            0                       # number of times access was blocked (Count)
board.cache_hierarchy.l1dcaches.blockedCauses::no_targets            0                       # number of times access was blocked (Count)
board.cache_hierarchy.l1dcaches.avgBlocked::no_mshrs          nan                       # average number of cycles each access was blocked ((Cycle/Count))
board.cache_hierarchy.l1dcaches.avgBlocked::no_wbuffers          nan                       # average number of cycles each access was blocked ((Cycle/Count))
board.cache_hierarchy.l1dcaches.avgBlocked::no_targets          nan                       # average number of cycles each access was blocked ((Cycle/Count))
board.cache_hierarchy.l1dcaches.writebacks::writebacks         4634                       # number of writebacks (Count)
board.cache_hierarchy.l1dcaches.writebacks::total         4634                       # number of writebacks (Count)
board.cache_hierarchy.l1dcaches.demandMshrMisses::processor.switch.core.data           73                       # number of demand (read+write) MSHR misses (Count)
board.cache_hierarchy.l1dcaches.demandMshrMisses::total           73                       # number of demand (read+write) MSHR misses (Count)
board.cache_hierarchy.l1dcaches.overallMshrMisses::cache_hierarchy.l1dcaches.prefetcher         4561                       # number of overall MSHR misses (Count)
board.cache_hierarchy.l1dcaches.overallMshrMisses::processor.switch.core.data           73                       # number of overall MSHR misses (Count)
board.cache_hierarchy.l1dcaches.overallMshrMisses::total         4634                       # number of overall MSHR misses (Count)
board.cache_hierarchy.l1dcaches.demandMshrMissLatency::processor.switch.core.data      5566250                       # number of demand (read+write) MSHR miss ticks (Tick)
board.cache_hierarchy.l1dcaches.demandMshrMissLatency::total      5566250                       # number of demand (read+write) MSHR miss ticks (Tick)
board.cache_hierarchy.l1dcaches.overallMshrMissLatency::cache_hierarchy.l1dcaches.prefetcher    362498670                       # number of overall MSHR miss ticks (Tick)
board.cache_hierarchy.l1dcaches.overallMshrMissLatency::processor.switch.core.data      5566250                       # number of overall MSHR miss ticks (Tick)
board.cache_hierarchy.l1dcaches.overallMshrMissLatency::total    368064920                       # number of overall MSHR miss ticks (Tick)
board.cache_hierarchy.l1dcaches.demandMshrMissRate::processor.switch.core.data     0.000003                       # mshr miss ratio for demand accesses (Ratio)
board.cache_hierarchy.l1dcaches.demandMshrMissRate::total     0.000003                       # mshr miss ratio for demand accesses (Ratio)
board.cache_hierarchy.l1dcaches.overallMshrMissRate::cache_hierarchy.l1dcaches.prefetcher          inf                       # mshr miss ratio for overall accesses (Ratio)
board.cache_hierarchy.l1dcaches.overallMshrMissRate::processor.switch.core.data     0.000003                       # mshr miss ratio for overall accesses (Ratio)
board.cache_hierarchy.l1dcaches.overallMshrMissRate::total     0.000195                       # mshr miss ratio for overall accesses (Ratio)
board.cache_hierarchy.l1dcaches.demandAvgMshrMissLatency::processor.switch.core.data        76250                       # average overall mshr miss latency ((Tick/Count))
board.cache_hierarchy.l1dcaches.demandAvgMshrMissLatency::total        76250                       # average overall mshr miss latency ((Tick/Count))
board.cache_hierarchy.l1dcaches.overallAvgMshrMissLatency::cache_hierarchy.l1dcaches.prefetcher 79477.893006                       # average overall mshr miss latency ((Tick/Count))
board.cache_hierarchy.l1dcaches.overallAvgMshrMissLatency::processor.switch.core.data        76250                       # average overall mshr miss latency ((Tick/Count))
board.cache_hierarchy.l1dcaches.overallAvgMshrMissLatency::total 79427.043591                       # average overall mshr miss latency ((Tick/Count))
board.cache_hierarchy.l1dcaches.replacements         4634                       # number of replacements (Count)
board.cache_hierarchy.l1dcaches.HardPFReq.mshrMisses::cache_hierarchy.l1dcaches.prefetcher         4561                       # number of HardPFReq MSHR misses (Count)
board.cache_hierarchy.l1dcaches.HardPFReq.mshrMisses::total         4561                       # number of HardPFReq MSHR misses (Count)
board.cache_hierarchy.l1dcaches.HardPFReq.mshrMissLatency::cache_hierarchy.l1dcaches.prefetcher    362498670                       # number of HardPFReq MSHR miss ticks (Tick)
board.cache_hierarchy.l1dcaches.HardPFReq.mshrMissLatency::total    362498670                       # number of HardPFReq MSHR miss ticks (Tick)
board.cache_hierarchy.l1dcaches.HardPFReq.mshrMissRate::cache_hierarchy.l1dcaches.prefetcher          inf                       # mshr miss rate for HardPFReq accesses (Ratio)
board.cache_hierarchy.l1dcaches.HardPFReq.mshrMissRate::total          inf                       # mshr miss rate for HardPFReq accesses (Ratio)
board.cache_hierarchy.l1dcaches.HardPFReq.avgMshrMissLatency::cache_hierarchy.l1dcaches.prefetcher 79477.893006                       # average HardPFReq mshr miss latency ((Tick/Count))
board.cache_hierarchy.l1dcaches.HardPFReq.avgMshrMissLatency::total 79477.893006                       # average HardPFReq mshr miss latency ((Tick/Count))
board.cache_hierarchy.l1dcaches.ReadReq.hits::processor.switch.core.data     17350725                       # number of ReadReq hits (Count)
board.cache_hierarchy.l1dcaches.ReadReq.hits::total     17350725                       # number of ReadReq hits (Count)
board.cache_hierarchy.l1dcaches.ReadReq.accesses::processor.switch.core.data     17350725                       # number of ReadReq accesses(hits+misses) (Count)
board.cache_hierarchy.l1dcaches.ReadReq.accesses::total     17350725                       # number of ReadReq accesses(hits+misses) (Count)
board.cache_hierarchy.l1dcaches.WriteReq.hits::processor.switch.core.data      6450004                       # number of WriteReq hits (Count)
board.cache_hierarchy.l1dcaches.WriteReq.hits::total      6450004                       # number of WriteReq hits (Count)
board.cache_hierarchy.l1dcaches.WriteReq.misses::processor.switch.core.data           73                       # number of WriteReq misses (Count)
board.cache_hierarchy.l1dcaches.WriteReq.misses::total           73                       # number of WriteReq misses (Count)
board.cache_hierarchy.l1dcaches.WriteReq.missLatency::processor.switch.core.data      5584500                       # number of WriteReq miss ticks (Tick)
board.cache_hierarchy.l1dcaches.WriteReq.missLatency::total      5584500                       # number of WriteReq miss ticks (Tick)
board.cache_hierarchy.l1dcaches.WriteReq.accesses::processor.switch.core.data      6450077                       # number of WriteReq accesses(hits+misses) (Count)
board.cache_hierarchy.l1dcaches.WriteReq.accesses::total      6450077                       # number of WriteReq accesses(hits+misses) (Count)
board.cache_hierarchy.l1dcaches.WriteReq.missRate::processor.switch.core.data     0.000011                       # miss rate for WriteReq accesses (Ratio)
board.cache_hierarchy.l1dcaches.WriteReq.missRate::total     0.000011                       # miss rate for WriteReq accesses (Ratio)
board.cache_hierarchy.l1dcaches.WriteReq.avgMissLatency::processor.switch.core.data        76500                       # average WriteReq miss latency ((Tick/Count))
board.cache_hierarchy.l1dcaches.WriteReq.avgMissLatency::total        76500                       # average WriteReq miss latency ((Tick/Count))
board.cache_hierarchy.l1dcaches.WriteReq.mshrMisses::processor.switch.core.data           73                       # number of WriteReq MSHR misses (Count)
board.cache_hierarchy.l1dcaches.WriteReq.mshrMisses::total           73                       # number of WriteReq MSHR misses (Count)
board.cache_hierarchy.l1dcaches.WriteReq.mshrMissLatency::processor.switch.core.data      5566250                       # number of WriteReq MSHR miss ticks (Tick)
board.cache_hierarchy.l1dcaches.WriteReq.mshrMissLatency::total      5566250                       # number of WriteReq MSHR miss ticks (Tick)
board.cache_hierarchy.l1dcaches.WriteReq.mshrMissRate::processor.switch.core.data     0.000011                       # mshr miss rate for WriteReq accesses (Ratio)
board.cache_hierarchy.l1dcaches.WriteReq.mshrMissRate::total     0.000011                       # mshr miss rate for WriteReq accesses (Ratio)
board.cache_hierarchy.l1dcaches.WriteReq.avgMshrMissLatency::processor.switch.core.data        76250                       # average WriteReq mshr miss latency ((Tick/Count))
board.cache_hierarchy.l1dcaches.WriteReq.avgMshrMissLatency::total        76250                       # average WriteReq mshr miss latency ((Tick/Count))
board.cache_hierarchy.l1dcaches.power_state.pwrStateResidencyTicks::UNDEFINED  23369173250                       # Cumulative time (in ticks) in various power states (Tick)
board.cache_hierarchy.l1dcaches.prefetcher.demandMshrMisses           73                       # demands not covered by prefetchs (Count)
board.cache_hierarchy.l1dcaches.prefetcher.pfIssued        13464                       # number of hwpf issued (Count)
board.cache_hierarchy.l1dcaches.prefetcher.pfUseful         4561                       # number of useful prefetch (Count)
board.cache_hierarchy.l1dcaches.prefetcher.pfUsefulButMiss            0                       # number of hit on prefetch but cache block is not in an usable state (Count)
board.cache_hierarchy.l1dcaches.prefetcher.accuracy     0.338755                       # accuracy of the prefetcher (Count)
board.cache_hierarchy.l1dcaches.prefetcher.coverage     0.984247                       # coverage brought by this prefetcher (Count)
board.cache_hierarchy.l1dcaches.prefetcher.pfHitInCache         8903                       # number of prefetches hitting in cache (Count)
board.cache_hierarchy.l1dcaches.prefetcher.pfHitInMSHR            0                       # number of prefetches hitting in a MSHR (Count)
board.cache_hierarchy.l1dcaches.prefetcher.pfHitInWB            0                       # number of prefetches hit in the Write Buffer (Count)
board.cache_hierarchy.l1dcaches.prefetcher.pfLate         8903                       # number of late prefetches (hitting in cache, MSHR or WB) (Count)
board.cache_hierarchy.l1dcaches.prefetcher.pfIdentified        13464                       # number of prefetch candidates identified (Count)
board.cache_hierarchy.l1dcaches.prefetcher.pfBufferHit            0                       # number of redundant prefetches already in prefetch queue (Count)
board.cache_hierarchy.l1dcaches.prefetcher.pfInCache            0                       # number of redundant prefetches already in cache/mshr dropped (Count)
board.cache_hierarchy.l1dcaches.prefetcher.pfRemovedDemand            0                       # number of prefetches dropped due to a demand for the same address (Count)
board.cache_hierarchy.l1dcaches.prefetcher.pfRemovedFull            0                       # number of prefetches dropped due to prefetch queue size (Count)
board.cache_hierarchy.l1dcaches.prefetcher.pfSpanPage          438                       # number of prefetches that crossed the page (Count)
board.cache_hierarchy.l1dcaches.prefetcher.pfUsefulSpanPage          438                       # number of prefetches that is useful and crossed the page (Count)
board.cache_hierarchy.l1dcaches.prefetcher.power_state.pwrStateResidencyTicks::UNDEFINED  23369173250                       # Cumulative time (in ticks) in various power states (Tick)
board.cache_hierarchy.l1dcaches.tags.tagsInUse          512                       # Average ticks per tags in use ((Tick/Count))
board.cache_hierarchy.l1dcaches.tags.totalRefs        78705                       # Total number of references to valid blocks. (Count)
board.cache_hierarchy.l1dcaches.tags.sampledRefs         4634                       # Sample count of references to valid blocks. (Count)
board.cache_hierarchy.l1dcaches.tags.avgRefs    16.984247                       # Average number of references to valid blocks. ((Count/Count))
board.cache_hierarchy.l1dcaches.tags.warmupTick            0                       # The tick when the warmup percentage was hit. (Tick)
board.cache_hierarchy.l1dcaches.tags.occupancies::cache_hierarchy.l1dcaches.prefetcher          449                       # Average occupied blocks per tick, per requestor ((Count/Tick))
board.cache_hierarchy.l1dcaches.tags.occupancies::processor.switch.core.data           63                       # Average occupied blocks per tick, per requestor ((Count/Tick))
board.cache_hierarchy.l1dcaches.tags.avgOccs::cache_hierarchy.l1dcaches.prefetcher     0.876953                       # Average percentage of cache occupancy ((Ratio/Tick))
board.cache_hierarchy.l1dcaches.tags.avgOccs::processor.switch.core.data     0.123047                       # Average percentage of cache occupancy ((Ratio/Tick))
board.cache_hierarchy.l1dcaches.tags.avgOccs::total            1                       # Average percentage of cache occupancy ((Ratio/Tick))
board.cache_hierarchy.l1dcaches.tags.occupanciesTaskId::1022          449                       # Occupied blocks per task id (Count)
board.cache_hierarchy.l1dcaches.tags.occupanciesTaskId::1024           63                       # Occupied blocks per task id (Count)
board.cache_hierarchy.l1dcaches.tags.ageTaskId_1022::0            2                       # Occupied blocks per task id, per block age (Count)
board.cache_hierarchy.l1dcaches.tags.ageTaskId_1022::1           17                       # Occupied blocks per task id, per block age (Count)
board.cache_hierarchy.l1dcaches.tags.ageTaskId_1022::2          177                       # Occupied blocks per task id, per block age (Count)
board.cache_hierarchy.l1dcaches.tags.ageTaskId_1022::3          136                       # Occupied blocks per task id, per block age (Count)
board.cache_hierarchy.l1dcaches.tags.ageTaskId_1022::4          117                       # Occupied blocks per task id, per block age (Count)
board.cache_hierarchy.l1dcaches.tags.ageTaskId_1024::1            1                       # Occupied blocks per task id, per block age (Count)
board.cache_hierarchy.l1dcaches.tags.ageTaskId_1024::2            2                       # Occupied blocks per task id, per block age (Count)
board.cache_hierarchy.l1dcaches.tags.ageTaskId_1024::3            3                       # Occupied blocks per task id, per block age (Count)
board.cache_hierarchy.l1dcaches.tags.ageTaskId_1024::4           57                       # Occupied blocks per task id, per block age (Count)
board.cache_hierarchy.l1dcaches.tags.ratioOccsTaskId::1022     0.876953                       # Ratio of occupied blocks and all blocks, per task id (Ratio)
board.cache_hierarchy.l1dcaches.tags.ratioOccsTaskId::1024     0.123047                       # Ratio of occupied blocks and all blocks, per task id (Ratio)
board.cache_hierarchy.l1dcaches.tags.tagAccesses    190411050                       # Number of tag accesses (Count)
board.cache_hierarchy.l1dcaches.tags.dataAccesses    190411050                       # Number of data accesses (Count)
board.cache_hierarchy.l1dcaches.tags.power_state.pwrStateResidencyTicks::UNDEFINED  23369173250                       # Cumulative time (in ticks) in various power states (Tick)
board.cache_hierarchy.l1icaches.demandHits::processor.switch.core.inst     18328231                       # number of demand (read+write) hits (Count)
board.cache_hierarchy.l1icaches.demandHits::total     18328231                       # number of demand (read+write) hits (Count)
board.cache_hierarchy.l1icaches.overallHits::processor.switch.core.inst     18328231                       # number of overall hits (Count)
board.cache_hierarchy.l1icaches.overallHits::total     18328231                       # number of overall hits (Count)
board.cache_hierarchy.l1icaches.demandAccesses::processor.switch.core.inst     18328231                       # number of demand (read+write) accesses (Count)
board.cache_hierarchy.l1icaches.demandAccesses::total     18328231                       # number of demand (read+write) accesses (Count)
board.cache_hierarchy.l1icaches.overallAccesses::processor.switch.core.inst     18328231                       # number of overall (read+write) accesses (Count)
board.cache_hierarchy.l1icaches.overallAccesses::total     18328231                       # number of overall (read+write) accesses (Count)
board.cache_hierarchy.l1icaches.blockedCycles::no_mshrs            0                       # number of cycles access was blocked (Cycle)
board.cache_hierarchy.l1icaches.blockedCycles::no_wbuffers            0                       # number of cycles access was blocked (Cycle)
board.cache_hierarchy.l1icaches.blockedCycles::no_targets            0                       # number of cycles access was blocked (Cycle)
board.cache_hierarchy.l1icaches.blockedCauses::no_mshrs            0                       # number of times access was blocked (Count)
board.cache_hierarchy.l1icaches.blockedCauses::no_wbuffers            0                       # number of times access was blocked (Count)
board.cache_hierarchy.l1icaches.blockedCauses::no_targets            0                       # number of times access was blocked (Count)
board.cache_hierarchy.l1icaches.avgBlocked::no_mshrs          nan                       # average number of cycles each access was blocked ((Cycle/Count))
board.cache_hierarchy.l1icaches.avgBlocked::no_wbuffers          nan                       # average number of cycles each access was blocked ((Cycle/Count))
board.cache_hierarchy.l1icaches.avgBlocked::no_targets          nan                       # average number of cycles each access was blocked ((Cycle/Count))
board.cache_hierarchy.l1icaches.replacements            0                       # number of replacements (Count)
board.cache_hierarchy.l1icaches.ReadReq.hits::processor.switch.core.inst     18328231                       # number of ReadReq hits (Count)
board.cache_hierarchy.l1icaches.ReadReq.hits::total     18328231                       # number of ReadReq hits (Count)
board.cache_hierarchy.l1icaches.ReadReq.accesses::processor.switch.core.inst     18328231                       # number of ReadReq accesses(hits+misses) (Count)
board.cache_hierarchy.l1icaches.ReadReq.accesses::total     18328231                       # number of ReadReq accesses(hits+misses) (Count)
board.cache_hierarchy.l1icaches.power_state.pwrStateResidencyTicks::UNDEFINED  23369173250                       # Cumulative time (in ticks) in various power states (Tick)
board.cache_hierarchy.l1icaches.tags.tagsInUse           98                       # Average ticks per tags in use ((Tick/Count))
board.cache_hierarchy.l1icaches.tags.totalRefs            0                       # Total number of references to valid blocks. (Count)
board.cache_hierarchy.l1icaches.tags.sampledRefs            0                       # Sample count of references to valid blocks. (Count)
board.cache_hierarchy.l1icaches.tags.avgRefs          nan                       # Average number of references to valid blocks. ((Count/Count))
board.cache_hierarchy.l1icaches.tags.warmupTick            0                       # The tick when the warmup percentage was hit. (Tick)
board.cache_hierarchy.l1icaches.tags.occupancies::processor.switch.core.inst           98                       # Average occupied blocks per tick, per requestor ((Count/Tick))
board.cache_hierarchy.l1icaches.tags.avgOccs::processor.switch.core.inst     0.191406                       # Average percentage of cache occupancy ((Ratio/Tick))
board.cache_hierarchy.l1icaches.tags.avgOccs::total     0.191406                       # Average percentage of cache occupancy ((Ratio/Tick))
board.cache_hierarchy.l1icaches.tags.occupanciesTaskId::1024           98                       # Occupied blocks per task id (Count)
board.cache_hierarchy.l1icaches.tags.ageTaskId_1024::4           98                       # Occupied blocks per task id, per block age (Count)
board.cache_hierarchy.l1icaches.tags.ratioOccsTaskId::1024     0.191406                       # Ratio of occupied blocks and all blocks, per task id (Ratio)
board.cache_hierarchy.l1icaches.tags.tagAccesses    146625848                       # Number of tag accesses (Count)
board.cache_hierarchy.l1icaches.tags.dataAccesses    146625848                       # Number of data accesses (Count)
board.cache_hierarchy.l1icaches.tags.power_state.pwrStateResidencyTicks::UNDEFINED  23369173250                       # Cumulative time (in ticks) in various power states (Tick)
board.cache_hierarchy.l2buses.transDist::ReadResp         4561                       # Transaction distribution (Count)
board.cache_hierarchy.l2buses.transDist::WritebackDirty         4634                       # Transaction distribution (Count)
board.cache_hierarchy.l2buses.transDist::ReadExReq           73                       # Transaction distribution (Count)
board.cache_hierarchy.l2buses.transDist::ReadExResp           73                       # Transaction distribution (Count)
board.cache_hierarchy.l2buses.transDist::ReadSharedReq         4561                       # Transaction distribution (Count)
board.cache_hierarchy.l2buses.pktCount_board.cache_hierarchy.l1dcaches.mem_side_port::board.cache_hierarchy.l2caches.cpu_side_port        13902                       # Packet count per connected requestor and responder (Count)
board.cache_hierarchy.l2buses.pktCount::total        13902                       # Packet count per connected requestor and responder (Count)
board.cache_hierarchy.l2buses.pktSize_board.cache_hierarchy.l1dcaches.mem_side_port::board.cache_hierarchy.l2caches.cpu_side_port       593152                       # Cumulative packet size per connected requestor and responder (Byte)
board.cache_hierarchy.l2buses.pktSize::total       593152                       # Cumulative packet size per connected requestor and responder (Byte)
board.cache_hierarchy.l2buses.snoops                0                       # Total snoops (Count)
board.cache_hierarchy.l2buses.snoopTraffic            0                       # Total snoop traffic (Byte)
board.cache_hierarchy.l2buses.snoopFanout::samples         4634                       # Request fanout histogram (Count)
board.cache_hierarchy.l2buses.snoopFanout::mean            0                       # Request fanout histogram (Count)
board.cache_hierarchy.l2buses.snoopFanout::stdev            0                       # Request fanout histogram (Count)
board.cache_hierarchy.l2buses.snoopFanout::underflows            0      0.00%      0.00% # Request fanout histogram (Count)
board.cache_hierarchy.l2buses.snoopFanout::0         4634    100.00%    100.00% # Request fanout histogram (Count)
board.cache_hierarchy.l2buses.snoopFanout::1            0      0.00%    100.00% # Request fanout histogram (Count)
board.cache_hierarchy.l2buses.snoopFanout::2            0      0.00%    100.00% # Request fanout histogram (Count)
board.cache_hierarchy.l2buses.snoopFanout::3            0      0.00%    100.00% # Request fanout histogram (Count)
board.cache_hierarchy.l2buses.snoopFanout::4            0      0.00%    100.00% # Request fanout histogram (Count)
board.cache_hierarchy.l2buses.snoopFanout::overflows            0      0.00%    100.00% # Request fanout histogram (Count)
board.cache_hierarchy.l2buses.snoopFanout::min_value            0                       # Request fanout histogram (Count)
board.cache_hierarchy.l2buses.snoopFanout::max_value            0                       # Request fanout histogram (Count)
board.cache_hierarchy.l2buses.snoopFanout::total         4634                       # Request fanout histogram (Count)
board.cache_hierarchy.l2buses.power_state.pwrStateResidencyTicks::UNDEFINED  23369173250                       # Cumulative time (in ticks) in various power states (Tick)
board.cache_hierarchy.l2buses.reqLayer0.occupancy      4552316                       # Layer occupancy (ticks) (Tick)
board.cache_hierarchy.l2buses.reqLayer0.utilization          0.0                       # Layer utilization (Ratio)
board.cache_hierarchy.l2buses.respLayer1.occupancy      2317000                       # Layer occupancy (ticks) (Tick)
board.cache_hierarchy.l2buses.respLayer1.utilization          0.0                       # Layer utilization (Ratio)
board.cache_hierarchy.l2buses.snoop_filter.totRequests         9268                       # Total number of requests made to the snoop filter. (Count)
board.cache_hierarchy.l2buses.snoop_filter.hitSingleRequests         4634                       # Number of requests hitting in the snoop filter with a single holder of the requested data. (Count)
board.cache_hierarchy.l2buses.snoop_filter.hitMultiRequests            0                       # Number of requests hitting in the snoop filter with multiple (>1) holders of the requested data. (Count)
board.cache_hierarchy.l2buses.snoop_filter.totSnoops            0                       # Total number of snoops made to the snoop filter. (Count)
board.cache_hierarchy.l2buses.snoop_filter.hitSingleSnoops            0                       # Number of snoops hitting in the snoop filter with a single holder of the requested data. (Count)
board.cache_hierarchy.l2buses.snoop_filter.hitMultiSnoops            0                       # Number of snoops hitting in the snoop filter with multiple (>1) holders of the requested data. (Count)
board.cache_hierarchy.l2caches.demandMisses::cache_hierarchy.l1dcaches.prefetcher         4561                       # number of demand (read+write) misses (Count)
board.cache_hierarchy.l2caches.demandMisses::processor.switch.core.data           73                       # number of demand (read+write) misses (Count)
board.cache_hierarchy.l2caches.demandMisses::total         4634                       # number of demand (read+write) misses (Count)
board.cache_hierarchy.l2caches.overallMisses::cache_hierarchy.l1dcaches.prefetcher         4561                       # number of overall misses (Count)
board.cache_hierarchy.l2caches.overallMisses::processor.switch.core.data           73                       # number of overall misses (Count)
board.cache_hierarchy.l2caches.overallMisses::total         4634                       # number of overall misses (Count)
board.cache_hierarchy.l2caches.demandMissLatency::cache_hierarchy.l1dcaches.prefetcher    361322066                       # number of demand (read+write) miss ticks (Tick)
board.cache_hierarchy.l2caches.demandMissLatency::processor.switch.core.data      5475000                       # number of demand (read+write) miss ticks (Tick)
board.cache_hierarchy.l2caches.demandMissLatency::total    366797066                       # number of demand (read+write) miss ticks (Tick)
board.cache_hierarchy.l2caches.overallMissLatency::cache_hierarchy.l1dcaches.prefetcher    361322066                       # number of overall miss ticks (Tick)
board.cache_hierarchy.l2caches.overallMissLatency::processor.switch.core.data      5475000                       # number of overall miss ticks (Tick)
board.cache_hierarchy.l2caches.overallMissLatency::total    366797066                       # number of overall miss ticks (Tick)
board.cache_hierarchy.l2caches.demandAccesses::cache_hierarchy.l1dcaches.prefetcher         4561                       # number of demand (read+write) accesses (Count)
board.cache_hierarchy.l2caches.demandAccesses::processor.switch.core.data           73                       # number of demand (read+write) accesses (Count)
board.cache_hierarchy.l2caches.demandAccesses::total         4634                       # number of demand (read+write) accesses (Count)
board.cache_hierarchy.l2caches.overallAccesses::cache_hierarchy.l1dcaches.prefetcher         4561                       # number of overall (read+write) accesses (Count)
board.cache_hierarchy.l2caches.overallAccesses::processor.switch.core.data           73                       # number of overall (read+write) accesses (Count)
board.cache_hierarchy.l2caches.overallAccesses::total         4634                       # number of overall (read+write) accesses (Count)
board.cache_hierarchy.l2caches.demandMissRate::cache_hierarchy.l1dcaches.prefetcher            1                       # miss rate for demand accesses (Ratio)
board.cache_hierarchy.l2caches.demandMissRate::processor.switch.core.data            1                       # miss rate for demand accesses (Ratio)
board.cache_hierarchy.l2caches.demandMissRate::total            1                       # miss rate for demand accesses (Ratio)
board.cache_hierarchy.l2caches.overallMissRate::cache_hierarchy.l1dcaches.prefetcher            1                       # miss rate for overall accesses (Ratio)
board.cache_hierarchy.l2caches.overallMissRate::processor.switch.core.data            1                       # miss rate for overall accesses (Ratio)
board.cache_hierarchy.l2caches.overallMissRate::total            1                       # miss rate for overall accesses (Ratio)
board.cache_hierarchy.l2caches.demandAvgMissLatency::cache_hierarchy.l1dcaches.prefetcher 79219.922385                       # average overall miss latency in ticks ((Tick/Count))
board.cache_hierarchy.l2caches.demandAvgMissLatency::processor.switch.core.data        75000                       # average overall miss latency in ticks ((Tick/Count))
board.cache_hierarchy.l2caches.demandAvgMissLatency::total 79153.445404                       # average overall miss latency in ticks ((Tick/Count))
board.cache_hierarchy.l2caches.overallAvgMissLatency::cache_hierarchy.l1dcaches.prefetcher 79219.922385                       # average overall miss latency ((Tick/Count))
board.cache_hierarchy.l2caches.overallAvgMissLatency::processor.switch.core.data        75000                       # average overall miss latency ((Tick/Count))
board.cache_hierarchy.l2caches.overallAvgMissLatency::total 79153.445404                       # average overall miss latency ((Tick/Count))
board.cache_hierarchy.l2caches.blockedCycles::no_mshrs            0                       # number of cycles access was blocked (Cycle)
board.cache_hierarchy.l2caches.blockedCycles::no_wbuffers            0                       # number of cycles access was blocked (Cycle)
board.cache_hierarchy.l2caches.blockedCycles::no_targets            0                       # number of cycles access was blocked (Cycle)
board.cache_hierarchy.l2caches.blockedCauses::no_mshrs            0                       # number of times access was blocked (Count)
board.cache_hierarchy.l2caches.blockedCauses::no_wbuffers            0                       # number of times access was blocked (Count)
board.cache_hierarchy.l2caches.blockedCauses::no_targets            0                       # number of times access was blocked (Count)
board.cache_hierarchy.l2caches.avgBlocked::no_mshrs          nan                       # average number of cycles each access was blocked ((Cycle/Count))
board.cache_hierarchy.l2caches.avgBlocked::no_wbuffers          nan                       # average number of cycles each access was blocked ((Cycle/Count))
board.cache_hierarchy.l2caches.avgBlocked::no_targets          nan                       # average number of cycles each access was blocked ((Cycle/Count))
board.cache_hierarchy.l2caches.demandMshrMisses::cache_hierarchy.l1dcaches.prefetcher         4561                       # number of demand (read+write) MSHR misses (Count)
board.cache_hierarchy.l2caches.demandMshrMisses::processor.switch.core.data           73                       # number of demand (read+write) MSHR misses (Count)
board.cache_hierarchy.l2caches.demandMshrMisses::total         4634                       # number of demand (read+write) MSHR misses (Count)
board.cache_hierarchy.l2caches.overallMshrMisses::cache_hierarchy.l1dcaches.prefetcher         4561                       # number of overall MSHR misses (Count)
board.cache_hierarchy.l2caches.overallMshrMisses::processor.switch.core.data           73                       # number of overall MSHR misses (Count)
board.cache_hierarchy.l2caches.overallMshrMisses::total         4634                       # number of overall MSHR misses (Count)
board.cache_hierarchy.l2caches.demandMshrMissLatency::cache_hierarchy.l1dcaches.prefetcher    360181816                       # number of demand (read+write) MSHR miss ticks (Tick)
board.cache_hierarchy.l2caches.demandMshrMissLatency::processor.switch.core.data      5456750                       # number of demand (read+write) MSHR miss ticks (Tick)
board.cache_hierarchy.l2caches.demandMshrMissLatency::total    365638566                       # number of demand (read+write) MSHR miss ticks (Tick)
board.cache_hierarchy.l2caches.overallMshrMissLatency::cache_hierarchy.l1dcaches.prefetcher    360181816                       # number of overall MSHR miss ticks (Tick)
board.cache_hierarchy.l2caches.overallMshrMissLatency::processor.switch.core.data      5456750                       # number of overall MSHR miss ticks (Tick)
board.cache_hierarchy.l2caches.overallMshrMissLatency::total    365638566                       # number of overall MSHR miss ticks (Tick)
board.cache_hierarchy.l2caches.demandMshrMissRate::cache_hierarchy.l1dcaches.prefetcher            1                       # mshr miss ratio for demand accesses (Ratio)
board.cache_hierarchy.l2caches.demandMshrMissRate::processor.switch.core.data            1                       # mshr miss ratio for demand accesses (Ratio)
board.cache_hierarchy.l2caches.demandMshrMissRate::total            1                       # mshr miss ratio for demand accesses (Ratio)
board.cache_hierarchy.l2caches.overallMshrMissRate::cache_hierarchy.l1dcaches.prefetcher            1                       # mshr miss ratio for overall accesses (Ratio)
board.cache_hierarchy.l2caches.overallMshrMissRate::processor.switch.core.data            1                       # mshr miss ratio for overall accesses (Ratio)
board.cache_hierarchy.l2caches.overallMshrMissRate::total            1                       # mshr miss ratio for overall accesses (Ratio)
board.cache_hierarchy.l2caches.demandAvgMshrMissLatency::cache_hierarchy.l1dcaches.prefetcher 78969.922385                       # average overall mshr miss latency ((Tick/Count))
board.cache_hierarchy.l2caches.demandAvgMshrMissLatency::processor.switch.core.data        74750                       # average overall mshr miss latency ((Tick/Count))
board.cache_hierarchy.l2caches.demandAvgMshrMissLatency::total 78903.445404                       # average overall mshr miss latency ((Tick/Count))
board.cache_hierarchy.l2caches.overallAvgMshrMissLatency::cache_hierarchy.l1dcaches.prefetcher 78969.922385                       # average overall mshr miss latency ((Tick/Count))
board.cache_hierarchy.l2caches.overallAvgMshrMissLatency::processor.switch.core.data        74750                       # average overall mshr miss latency ((Tick/Count))
board.cache_hierarchy.l2caches.overallAvgMshrMissLatency::total 78903.445404                       # average overall mshr miss latency ((Tick/Count))
board.cache_hierarchy.l2caches.replacements            0                       # number of replacements (Count)
board.cache_hierarchy.l2caches.ReadExReq.misses::processor.switch.core.data           73                       # number of ReadExReq misses (Count)
board.cache_hierarchy.l2caches.ReadExReq.misses::total           73                       # number of ReadExReq misses (Count)
board.cache_hierarchy.l2caches.ReadExReq.missLatency::processor.switch.core.data      5475000                       # number of ReadExReq miss ticks (Tick)
board.cache_hierarchy.l2caches.ReadExReq.missLatency::total      5475000                       # number of ReadExReq miss ticks (Tick)
board.cache_hierarchy.l2caches.ReadExReq.accesses::processor.switch.core.data           73                       # number of ReadExReq accesses(hits+misses) (Count)
board.cache_hierarchy.l2caches.ReadExReq.accesses::total           73                       # number of ReadExReq accesses(hits+misses) (Count)
board.cache_hierarchy.l2caches.ReadExReq.missRate::processor.switch.core.data            1                       # miss rate for ReadExReq accesses (Ratio)
board.cache_hierarchy.l2caches.ReadExReq.missRate::total            1                       # miss rate for ReadExReq accesses (Ratio)
board.cache_hierarchy.l2caches.ReadExReq.avgMissLatency::processor.switch.core.data        75000                       # average ReadExReq miss latency ((Tick/Count))
board.cache_hierarchy.l2caches.ReadExReq.avgMissLatency::total        75000                       # average ReadExReq miss latency ((Tick/Count))
board.cache_hierarchy.l2caches.ReadExReq.mshrMisses::processor.switch.core.data           73                       # number of ReadExReq MSHR misses (Count)
board.cache_hierarchy.l2caches.ReadExReq.mshrMisses::total           73                       # number of ReadExReq MSHR misses (Count)
board.cache_hierarchy.l2caches.ReadExReq.mshrMissLatency::processor.switch.core.data      5456750                       # number of ReadExReq MSHR miss ticks (Tick)
board.cache_hierarchy.l2caches.ReadExReq.mshrMissLatency::total      5456750                       # number of ReadExReq MSHR miss ticks (Tick)
board.cache_hierarchy.l2caches.ReadExReq.mshrMissRate::processor.switch.core.data            1                       # mshr miss rate for ReadExReq accesses (Ratio)
board.cache_hierarchy.l2caches.ReadExReq.mshrMissRate::total            1                       # mshr miss rate for ReadExReq accesses (Ratio)
board.cache_hierarchy.l2caches.ReadExReq.avgMshrMissLatency::processor.switch.core.data        74750                       # average ReadExReq mshr miss latency ((Tick/Count))
board.cache_hierarchy.l2caches.ReadExReq.avgMshrMissLatency::total        74750                       # average ReadExReq mshr miss latency ((Tick/Count))
board.cache_hierarchy.l2caches.ReadSharedReq.misses::cache_hierarchy.l1dcaches.prefetcher         4561                       # number of ReadSharedReq misses (Count)
board.cache_hierarchy.l2caches.ReadSharedReq.misses::total         4561                       # number of ReadSharedReq misses (Count)
board.cache_hierarchy.l2caches.ReadSharedReq.missLatency::cache_hierarchy.l1dcaches.prefetcher    361322066                       # number of ReadSharedReq miss ticks (Tick)
board.cache_hierarchy.l2caches.ReadSharedReq.missLatency::total    361322066                       # number of ReadSharedReq miss ticks (Tick)
board.cache_hierarchy.l2caches.ReadSharedReq.accesses::cache_hierarchy.l1dcaches.prefetcher         4561                       # number of ReadSharedReq accesses(hits+misses) (Count)
board.cache_hierarchy.l2caches.ReadSharedReq.accesses::total         4561                       # number of ReadSharedReq accesses(hits+misses) (Count)
board.cache_hierarchy.l2caches.ReadSharedReq.missRate::cache_hierarchy.l1dcaches.prefetcher            1                       # miss rate for ReadSharedReq accesses (Ratio)
board.cache_hierarchy.l2caches.ReadSharedReq.missRate::total            1                       # miss rate for ReadSharedReq accesses (Ratio)
board.cache_hierarchy.l2caches.ReadSharedReq.avgMissLatency::cache_hierarchy.l1dcaches.prefetcher 79219.922385                       # average ReadSharedReq miss latency ((Tick/Count))
board.cache_hierarchy.l2caches.ReadSharedReq.avgMissLatency::total 79219.922385                       # average ReadSharedReq miss latency ((Tick/Count))
board.cache_hierarchy.l2caches.ReadSharedReq.mshrMisses::cache_hierarchy.l1dcaches.prefetcher         4561                       # number of ReadSharedReq MSHR misses (Count)
board.cache_hierarchy.l2caches.ReadSharedReq.mshrMisses::total         4561                       # number of ReadSharedReq MSHR misses (Count)
board.cache_hierarchy.l2caches.ReadSharedReq.mshrMissLatency::cache_hierarchy.l1dcaches.prefetcher    360181816                       # number of ReadSharedReq MSHR miss ticks (Tick)
board.cache_hierarchy.l2caches.ReadSharedReq.mshrMissLatency::total    360181816                       # number of ReadSharedReq MSHR miss ticks (Tick)
board.cache_hierarchy.l2caches.ReadSharedReq.mshrMissRate::cache_hierarchy.l1dcaches.prefetcher            1                       # mshr miss rate for ReadSharedReq accesses (Ratio)
board.cache_hierarchy.l2caches.ReadSharedReq.mshrMissRate::total            1                       # mshr miss rate for ReadSharedReq accesses (Ratio)
board.cache_hierarchy.l2caches.ReadSharedReq.avgMshrMissLatency::cache_hierarchy.l1dcaches.prefetcher 78969.922385                       # average ReadSharedReq mshr miss latency ((Tick/Count))
board.cache_hierarchy.l2caches.ReadSharedReq.avgMshrMissLatency::total 78969.922385                       # average ReadSharedReq mshr miss latency ((Tick/Count))
board.cache_hierarchy.l2caches.WritebackDirty.hits::writebacks         4634                       # number of WritebackDirty hits (Count)
board.cache_hierarchy.l2caches.WritebackDirty.hits::total         4634                       # number of WritebackDirty hits (Count)
board.cache_hierarchy.l2caches.WritebackDirty.accesses::writebacks         4634                       # number of WritebackDirty accesses(hits+misses) (Count)
board.cache_hierarchy.l2caches.WritebackDirty.accesses::total         4634                       # number of WritebackDirty accesses(hits+misses) (Count)
board.cache_hierarchy.l2caches.power_state.pwrStateResidencyTicks::UNDEFINED  23369173250                       # Cumulative time (in ticks) in various power states (Tick)
board.cache_hierarchy.l2caches.tags.tagsInUse  5017.812060                       # Average ticks per tags in use ((Tick/Count))
board.cache_hierarchy.l2caches.tags.totalRefs            0                       # Total number of references to valid blocks. (Count)
board.cache_hierarchy.l2caches.tags.sampledRefs            0                       # Sample count of references to valid blocks. (Count)
board.cache_hierarchy.l2caches.tags.avgRefs          nan                       # Average number of references to valid blocks. ((Count/Count))
board.cache_hierarchy.l2caches.tags.warmupTick            0                       # The tick when the warmup percentage was hit. (Tick)
board.cache_hierarchy.l2caches.tags.occupancies::cache_hierarchy.l1dcaches.prefetcher  4779.384496                       # Average occupied blocks per tick, per requestor ((Count/Tick))
board.cache_hierarchy.l2caches.tags.occupancies::processor.switch.core.inst           98                       # Average occupied blocks per tick, per requestor ((Count/Tick))
board.cache_hierarchy.l2caches.tags.occupancies::processor.switch.core.data   140.427563                       # Average occupied blocks per tick, per requestor ((Count/Tick))
board.cache_hierarchy.l2caches.tags.avgOccs::cache_hierarchy.l1dcaches.prefetcher     0.291710                       # Average percentage of cache occupancy ((Ratio/Tick))
board.cache_hierarchy.l2caches.tags.avgOccs::processor.switch.core.inst     0.005981                       # Average percentage of cache occupancy ((Ratio/Tick))
board.cache_hierarchy.l2caches.tags.avgOccs::processor.switch.core.data     0.008571                       # Average percentage of cache occupancy ((Ratio/Tick))
board.cache_hierarchy.l2caches.tags.avgOccs::total     0.306263                       # Average percentage of cache occupancy ((Ratio/Tick))
board.cache_hierarchy.l2caches.tags.occupanciesTaskId::1022         7060                       # Occupied blocks per task id (Count)
board.cache_hierarchy.l2caches.tags.occupanciesTaskId::1024          275                       # Occupied blocks per task id (Count)
board.cache_hierarchy.l2caches.tags.ageTaskId_1022::0            2                       # Occupied blocks per task id, per block age (Count)
board.cache_hierarchy.l2caches.tags.ageTaskId_1022::1           17                       # Occupied blocks per task id, per block age (Count)
board.cache_hierarchy.l2caches.tags.ageTaskId_1022::2          177                       # Occupied blocks per task id, per block age (Count)
board.cache_hierarchy.l2caches.tags.ageTaskId_1022::3         1756                       # Occupied blocks per task id, per block age (Count)
board.cache_hierarchy.l2caches.tags.ageTaskId_1022::4         5108                       # Occupied blocks per task id, per block age (Count)
board.cache_hierarchy.l2caches.tags.ageTaskId_1024::1            1                       # Occupied blocks per task id, per block age (Count)
board.cache_hierarchy.l2caches.tags.ageTaskId_1024::2            2                       # Occupied blocks per task id, per block age (Count)
board.cache_hierarchy.l2caches.tags.ageTaskId_1024::3           28                       # Occupied blocks per task id, per block age (Count)
board.cache_hierarchy.l2caches.tags.ageTaskId_1024::4          244                       # Occupied blocks per task id, per block age (Count)
board.cache_hierarchy.l2caches.tags.ratioOccsTaskId::1022     0.430908                       # Ratio of occupied blocks and all blocks, per task id (Ratio)
board.cache_hierarchy.l2caches.tags.ratioOccsTaskId::1024     0.016785                       # Ratio of occupied blocks and all blocks, per task id (Ratio)
board.cache_hierarchy.l2caches.tags.tagAccesses       152922                       # Number of tag accesses (Count)
board.cache_hierarchy.l2caches.tags.dataAccesses       152922                       # Number of data accesses (Count)
board.cache_hierarchy.l2caches.tags.power_state.pwrStateResidencyTicks::UNDEFINED  23369173250                       # Cumulative time (in ticks) in various power states (Tick)
board.cache_hierarchy.llcXbar.transDist::ReadResp         4561                       # Transaction distribution (Count)
board.cache_hierarchy.llcXbar.transDist::ReadExReq           73                       # Transaction distribution (Count)
board.cache_hierarchy.llcXbar.transDist::ReadExResp           73                       # Transaction distribution (Count)
board.cache_hierarchy.llcXbar.transDist::ReadSharedReq         4561                       # Transaction distribution (Count)
board.cache_hierarchy.llcXbar.pktCount_board.cache_hierarchy.l2caches.mem_side_port::board.cache_hierarchy.llcache.cpu_side_port         9268                       # Packet count per connected requestor and responder (Count)
board.cache_hierarchy.llcXbar.pktSize_board.cache_hierarchy.l2caches.mem_side_port::board.cache_hierarchy.llcache.cpu_side_port       296576                       # Cumulative packet size per connected requestor and responder (Byte)
board.cache_hierarchy.llcXbar.snoops                0                       # Total snoops (Count)
board.cache_hierarchy.llcXbar.snoopTraffic            0                       # Total snoop traffic (Byte)
board.cache_hierarchy.llcXbar.snoopFanout::samples         4634                       # Request fanout histogram (Count)
board.cache_hierarchy.llcXbar.snoopFanout::mean            0                       # Request fanout histogram (Count)
board.cache_hierarchy.llcXbar.snoopFanout::stdev            0                       # Request fanout histogram (Count)
board.cache_hierarchy.llcXbar.snoopFanout::underflows            0      0.00%      0.00% # Request fanout histogram (Count)
board.cache_hierarchy.llcXbar.snoopFanout::0         4634    100.00%    100.00% # Request fanout histogram (Count)
board.cache_hierarchy.llcXbar.snoopFanout::1            0      0.00%    100.00% # Request fanout histogram (Count)
board.cache_hierarchy.llcXbar.snoopFanout::overflows            0      0.00%    100.00% # Request fanout histogram (Count)
board.cache_hierarchy.llcXbar.snoopFanout::min_value            0                       # Request fanout histogram (Count)
board.cache_hierarchy.llcXbar.snoopFanout::max_value            0                       # Request fanout histogram (Count)
board.cache_hierarchy.llcXbar.snoopFanout::total         4634                       # Request fanout histogram (Count)
board.cache_hierarchy.llcXbar.power_state.pwrStateResidencyTicks::UNDEFINED  23369173250                       # Cumulative time (in ticks) in various power states (Tick)
board.cache_hierarchy.llcXbar.reqLayer0.occupancy      1167184                       # Layer occupancy (ticks) (Tick)
board.cache_hierarchy.llcXbar.reqLayer0.utilization          0.0                       # Layer utilization (Ratio)
board.cache_hierarchy.llcXbar.respLayer0.occupancy      2317000                       # Layer occupancy (ticks) (Tick)
board.cache_hierarchy.llcXbar.respLayer0.utilization          0.0                       # Layer utilization (Ratio)
board.cache_hierarchy.llcXbar.snoop_filter.totRequests         4634                       # Total number of requests made to the snoop filter. (Count)
board.cache_hierarchy.llcXbar.snoop_filter.hitSingleRequests            0                       # Number of requests hitting in the snoop filter with a single holder of the requested data. (Count)
board.cache_hierarchy.llcXbar.snoop_filter.hitMultiRequests            0                       # Number of requests hitting in the snoop filter with multiple (>1) holders of the requested data. (Count)
board.cache_hierarchy.llcXbar.snoop_filter.totSnoops            0                       # Total number of snoops made to the snoop filter. (Count)
board.cache_hierarchy.llcXbar.snoop_filter.hitSingleSnoops            0                       # Number of snoops hitting in the snoop filter with a single holder of the requested data. (Count)
board.cache_hierarchy.llcXbar.snoop_filter.hitMultiSnoops            0                       # Number of snoops hitting in the snoop filter with multiple (>1) holders of the requested data. (Count)
board.cache_hierarchy.llcache.demandMisses::cache_hierarchy.l1dcaches.prefetcher         4561                       # number of demand (read+write) misses (Count)
board.cache_hierarchy.llcache.demandMisses::processor.switch.core.data           73                       # number of demand (read+write) misses (Count)
board.cache_hierarchy.llcache.demandMisses::total         4634                       # number of demand (read+write) misses (Count)
board.cache_hierarchy.llcache.overallMisses::cache_hierarchy.l1dcaches.prefetcher         4561                       # number of overall misses (Count)
board.cache_hierarchy.llcache.overallMisses::processor.switch.core.data           73                       # number of overall misses (Count)
board.cache_hierarchy.llcache.overallMisses::total         4634                       # number of overall misses (Count)
board.cache_hierarchy.llcache.demandMissLatency::cache_hierarchy.l1dcaches.prefetcher    339784184                       # number of demand (read+write) miss ticks (Tick)
board.cache_hierarchy.llcache.demandMissLatency::processor.switch.core.data      5164750                       # number of demand (read+write) miss ticks (Tick)
board.cache_hierarchy.llcache.demandMissLatency::total    344948934                       # number of demand (read+write) miss ticks (Tick)
board.cache_hierarchy.llcache.overallMissLatency::cache_hierarchy.l1dcaches.prefetcher    339784184                       # number of overall miss ticks (Tick)
board.cache_hierarchy.llcache.overallMissLatency::processor.switch.core.data      5164750                       # number of overall miss ticks (Tick)
board.cache_hierarchy.llcache.overallMissLatency::total    344948934                       # number of overall miss ticks (Tick)
board.cache_hierarchy.llcache.demandAccesses::cache_hierarchy.l1dcaches.prefetcher         4561                       # number of demand (read+write) accesses (Count)
board.cache_hierarchy.llcache.demandAccesses::processor.switch.core.data           73                       # number of demand (read+write) accesses (Count)
board.cache_hierarchy.llcache.demandAccesses::total         4634                       # number of demand (read+write) accesses (Count)
board.cache_hierarchy.llcache.overallAccesses::cache_hierarchy.l1dcaches.prefetcher         4561                       # number of overall (read+write) accesses (Count)
board.cache_hierarchy.llcache.overallAccesses::processor.switch.core.data           73                       # number of overall (read+write) accesses (Count)
board.cache_hierarchy.llcache.overallAccesses::total         4634                       # number of overall (read+write) accesses (Count)
board.cache_hierarchy.llcache.demandMissRate::cache_hierarchy.l1dcaches.prefetcher            1                       # miss rate for demand accesses (Ratio)
board.cache_hierarchy.llcache.demandMissRate::processor.switch.core.data            1                       # miss rate for demand accesses (Ratio)
board.cache_hierarchy.llcache.demandMissRate::total            1                       # miss rate for demand accesses (Ratio)
board.cache_hierarchy.llcache.overallMissRate::cache_hierarchy.l1dcaches.prefetcher            1                       # miss rate for overall accesses (Ratio)
board.cache_hierarchy.llcache.overallMissRate::processor.switch.core.data            1                       # miss rate for overall accesses (Ratio)
board.cache_hierarchy.llcache.overallMissRate::total            1                       # miss rate for overall accesses (Ratio)
board.cache_hierarchy.llcache.demandAvgMissLatency::cache_hierarchy.l1dcaches.prefetcher 74497.738215                       # average overall miss latency in ticks ((Tick/Count))
board.cache_hierarchy.llcache.demandAvgMissLatency::processor.switch.core.data        70750                       # average overall miss latency in ticks ((Tick/Count))
board.cache_hierarchy.llcache.demandAvgMissLatency::total 74438.699612                       # average overall miss latency in ticks ((Tick/Count))
board.cache_hierarchy.llcache.overallAvgMissLatency::cache_hierarchy.l1dcaches.prefetcher 74497.738215                       # average overall miss latency ((Tick/Count))
board.cache_hierarchy.llcache.overallAvgMissLatency::processor.switch.core.data        70750                       # average overall miss latency ((Tick/Count))
board.cache_hierarchy.llcache.overallAvgMissLatency::total 74438.699612                       # average overall miss latency ((Tick/Count))
board.cache_hierarchy.llcache.blockedCycles::no_mshrs            0                       # number of cycles access was blocked (Cycle)
board.cache_hierarchy.llcache.blockedCycles::no_wbuffers            0                       # number of cycles access was blocked (Cycle)
board.cache_hierarchy.llcache.blockedCycles::no_targets            0                       # number of cycles access was blocked (Cycle)
board.cache_hierarchy.llcache.blockedCauses::no_mshrs            0                       # number of times access was blocked (Count)
board.cache_hierarchy.llcache.blockedCauses::no_wbuffers            0                       # number of times access was blocked (Count)
board.cache_hierarchy.llcache.blockedCauses::no_targets            0                       # number of times access was blocked (Count)
board.cache_hierarchy.llcache.avgBlocked::no_mshrs          nan                       # average number of cycles each access was blocked ((Cycle/Count))
board.cache_hierarchy.llcache.avgBlocked::no_wbuffers          nan                       # average number of cycles each access was blocked ((Cycle/Count))
board.cache_hierarchy.llcache.avgBlocked::no_targets          nan                       # average number of cycles each access was blocked ((Cycle/Count))
board.cache_hierarchy.llcache.demandMshrMisses::cache_hierarchy.l1dcaches.prefetcher         4561                       # number of demand (read+write) MSHR misses (Count)
board.cache_hierarchy.llcache.demandMshrMisses::processor.switch.core.data           73                       # number of demand (read+write) MSHR misses (Count)
board.cache_hierarchy.llcache.demandMshrMisses::total         4634                       # number of demand (read+write) MSHR misses (Count)
board.cache_hierarchy.llcache.overallMshrMisses::cache_hierarchy.l1dcaches.prefetcher         4561                       # number of overall MSHR misses (Count)
board.cache_hierarchy.llcache.overallMshrMisses::processor.switch.core.data           73                       # number of overall MSHR misses (Count)
board.cache_hierarchy.llcache.overallMshrMisses::total         4634                       # number of overall MSHR misses (Count)
board.cache_hierarchy.llcache.demandMshrMissLatency::cache_hierarchy.l1dcaches.prefetcher    338643934                       # number of demand (read+write) MSHR miss ticks (Tick)
board.cache_hierarchy.llcache.demandMshrMissLatency::processor.switch.core.data      5146500                       # number of demand (read+write) MSHR miss ticks (Tick)
board.cache_hierarchy.llcache.demandMshrMissLatency::total    343790434                       # number of demand (read+write) MSHR miss ticks (Tick)
board.cache_hierarchy.llcache.overallMshrMissLatency::cache_hierarchy.l1dcaches.prefetcher    338643934                       # number of overall MSHR miss ticks (Tick)
board.cache_hierarchy.llcache.overallMshrMissLatency::processor.switch.core.data      5146500                       # number of overall MSHR miss ticks (Tick)
board.cache_hierarchy.llcache.overallMshrMissLatency::total    343790434                       # number of overall MSHR miss ticks (Tick)
board.cache_hierarchy.llcache.demandMshrMissRate::cache_hierarchy.l1dcaches.prefetcher            1                       # mshr miss ratio for demand accesses (Ratio)
board.cache_hierarchy.llcache.demandMshrMissRate::processor.switch.core.data            1                       # mshr miss ratio for demand accesses (Ratio)
board.cache_hierarchy.llcache.demandMshrMissRate::total            1                       # mshr miss ratio for demand accesses (Ratio)
board.cache_hierarchy.llcache.overallMshrMissRate::cache_hierarchy.l1dcaches.prefetcher            1                       # mshr miss ratio for overall accesses (Ratio)
board.cache_hierarchy.llcache.overallMshrMissRate::processor.switch.core.data            1                       # mshr miss ratio for overall accesses (Ratio)
board.cache_hierarchy.llcache.overallMshrMissRate::total            1                       # mshr miss ratio for overall accesses (Ratio)
board.cache_hierarchy.llcache.demandAvgMshrMissLatency::cache_hierarchy.l1dcaches.prefetcher 74247.738215                       # average overall mshr miss latency ((Tick/Count))
board.cache_hierarchy.llcache.demandAvgMshrMissLatency::processor.switch.core.data        70500                       # average overall mshr miss latency ((Tick/Count))
board.cache_hierarchy.llcache.demandAvgMshrMissLatency::total 74188.699612                       # average overall mshr miss latency ((Tick/Count))
board.cache_hierarchy.llcache.overallAvgMshrMissLatency::cache_hierarchy.l1dcaches.prefetcher 74247.738215                       # average overall mshr miss latency ((Tick/Count))
board.cache_hierarchy.llcache.overallAvgMshrMissLatency::processor.switch.core.data        70500                       # average overall mshr miss latency ((Tick/Count))
board.cache_hierarchy.llcache.overallAvgMshrMissLatency::total 74188.699612                       # average overall mshr miss latency ((Tick/Count))
board.cache_hierarchy.llcache.replacements            0                       # number of replacements (Count)
board.cache_hierarchy.llcache.ReadExReq.misses::processor.switch.core.data           73                       # number of ReadExReq misses (Count)
board.cache_hierarchy.llcache.ReadExReq.misses::total           73                       # number of ReadExReq misses (Count)
board.cache_hierarchy.llcache.ReadExReq.missLatency::processor.switch.core.data      5164750                       # number of ReadExReq miss ticks (Tick)
board.cache_hierarchy.llcache.ReadExReq.missLatency::total      5164750                       # number of ReadExReq miss ticks (Tick)
board.cache_hierarchy.llcache.ReadExReq.accesses::processor.switch.core.data           73                       # number of ReadExReq accesses(hits+misses) (Count)
board.cache_hierarchy.llcache.ReadExReq.accesses::total           73                       # number of ReadExReq accesses(hits+misses) (Count)
board.cache_hierarchy.llcache.ReadExReq.missRate::processor.switch.core.data            1                       # miss rate for ReadExReq accesses (Ratio)
board.cache_hierarchy.llcache.ReadExReq.missRate::total            1                       # miss rate for ReadExReq accesses (Ratio)
board.cache_hierarchy.llcache.ReadExReq.avgMissLatency::processor.switch.core.data        70750                       # average ReadExReq miss latency ((Tick/Count))
board.cache_hierarchy.llcache.ReadExReq.avgMissLatency::total        70750                       # average ReadExReq miss latency ((Tick/Count))
board.cache_hierarchy.llcache.ReadExReq.mshrMisses::processor.switch.core.data           73                       # number of ReadExReq MSHR misses (Count)
board.cache_hierarchy.llcache.ReadExReq.mshrMisses::total           73                       # number of ReadExReq MSHR misses (Count)
board.cache_hierarchy.llcache.ReadExReq.mshrMissLatency::processor.switch.core.data      5146500                       # number of ReadExReq MSHR miss ticks (Tick)
board.cache_hierarchy.llcache.ReadExReq.mshrMissLatency::total      5146500                       # number of ReadExReq MSHR miss ticks (Tick)
board.cache_hierarchy.llcache.ReadExReq.mshrMissRate::processor.switch.core.data            1                       # mshr miss rate for ReadExReq accesses (Ratio)
board.cache_hierarchy.llcache.ReadExReq.mshrMissRate::total            1                       # mshr miss rate for ReadExReq accesses (Ratio)
board.cache_hierarchy.llcache.ReadExReq.avgMshrMissLatency::processor.switch.core.data        70500                       # average ReadExReq mshr miss latency ((Tick/Count))
board.cache_hierarchy.llcache.ReadExReq.avgMshrMissLatency::total        70500                       # average ReadExReq mshr miss latency ((Tick/Count))
board.cache_hierarchy.llcache.ReadSharedReq.misses::cache_hierarchy.l1dcaches.prefetcher         4561                       # number of ReadSharedReq misses (Count)
board.cache_hierarchy.llcache.ReadSharedReq.misses::total         4561                       # number of ReadSharedReq misses (Count)
board.cache_hierarchy.llcache.ReadSharedReq.missLatency::cache_hierarchy.l1dcaches.prefetcher    339784184                       # number of ReadSharedReq miss ticks (Tick)
board.cache_hierarchy.llcache.ReadSharedReq.missLatency::total    339784184                       # number of ReadSharedReq miss ticks (Tick)
board.cache_hierarchy.llcache.ReadSharedReq.accesses::cache_hierarchy.l1dcaches.prefetcher         4561                       # number of ReadSharedReq accesses(hits+misses) (Count)
board.cache_hierarchy.llcache.ReadSharedReq.accesses::total         4561                       # number of ReadSharedReq accesses(hits+misses) (Count)
board.cache_hierarchy.llcache.ReadSharedReq.missRate::cache_hierarchy.l1dcaches.prefetcher            1                       # miss rate for ReadSharedReq accesses (Ratio)
board.cache_hierarchy.llcache.ReadSharedReq.missRate::total            1                       # miss rate for ReadSharedReq accesses (Ratio)
board.cache_hierarchy.llcache.ReadSharedReq.avgMissLatency::cache_hierarchy.l1dcaches.prefetcher 74497.738215                       # average ReadSharedReq miss latency ((Tick/Count))
board.cache_hierarchy.llcache.ReadSharedReq.avgMissLatency::total 74497.738215                       # average ReadSharedReq miss latency ((Tick/Count))
board.cache_hierarchy.llcache.ReadSharedReq.mshrMisses::cache_hierarchy.l1dcaches.prefetcher         4561                       # number of ReadSharedReq MSHR misses (Count)
board.cache_hierarchy.llcache.ReadSharedReq.mshrMisses::total         4561                       # number of ReadSharedReq MSHR misses (Count)
board.cache_hierarchy.llcache.ReadSharedReq.mshrMissLatency::cache_hierarchy.l1dcaches.prefetcher    338643934                       # number of ReadSharedReq MSHR miss ticks (Tick)
board.cache_hierarchy.llcache.ReadSharedReq.mshrMissLatency::total    338643934                       # number of ReadSharedReq MSHR miss ticks (Tick)
board.cache_hierarchy.llcache.ReadSharedReq.mshrMissRate::cache_hierarchy.l1dcaches.prefetcher            1                       # mshr miss rate for ReadSharedReq accesses (Ratio)
board.cache_hierarchy.llcache.ReadSharedReq.mshrMissRate::total            1                       # mshr miss rate for ReadSharedReq accesses (Ratio)
board.cache_hierarchy.llcache.ReadSharedReq.avgMshrMissLatency::cache_hierarchy.l1dcaches.prefetcher 74247.738215                       # average ReadSharedReq mshr miss latency ((Tick/Count))
board.cache_hierarchy.llcache.ReadSharedReq.avgMshrMissLatency::total 74247.738215                       # average ReadSharedReq mshr miss latency ((Tick/Count))
board.cache_hierarchy.llcache.power_state.pwrStateResidencyTicks::UNDEFINED  23369173250                       # Cumulative time (in ticks) in various power states (Tick)
board.cache_hierarchy.llcache.tags.tagsInUse  5017.812159                       # Average ticks per tags in use ((Tick/Count))
board.cache_hierarchy.llcache.tags.totalRefs            0                       # Total number of references to valid blocks. (Count)
board.cache_hierarchy.llcache.tags.sampledRefs            0                       # Sample count of references to valid blocks. (Count)
board.cache_hierarchy.llcache.tags.avgRefs          nan                       # Average number of references to valid blocks. ((Count/Count))
board.cache_hierarchy.llcache.tags.warmupTick            0                       # The tick when the warmup percentage was hit. (Tick)
board.cache_hierarchy.llcache.tags.occupancies::cache_hierarchy.l1dcaches.prefetcher  4779.384594                       # Average occupied blocks per tick, per requestor ((Count/Tick))
board.cache_hierarchy.llcache.tags.occupancies::processor.switch.core.inst           98                       # Average occupied blocks per tick, per requestor ((Count/Tick))
board.cache_hierarchy.llcache.tags.occupancies::processor.switch.core.data   140.427565                       # Average occupied blocks per tick, per requestor ((Count/Tick))
board.cache_hierarchy.llcache.tags.avgOccs::cache_hierarchy.l1dcaches.prefetcher     0.036464                       # Average percentage of cache occupancy ((Ratio/Tick))
board.cache_hierarchy.llcache.tags.avgOccs::processor.switch.core.inst     0.000748                       # Average percentage of cache occupancy ((Ratio/Tick))
board.cache_hierarchy.llcache.tags.avgOccs::processor.switch.core.data     0.001071                       # Average percentage of cache occupancy ((Ratio/Tick))
board.cache_hierarchy.llcache.tags.avgOccs::total     0.038283                       # Average percentage of cache occupancy ((Ratio/Tick))
board.cache_hierarchy.llcache.tags.occupanciesTaskId::1022         7060                       # Occupied blocks per task id (Count)
board.cache_hierarchy.llcache.tags.occupanciesTaskId::1024          275                       # Occupied blocks per task id (Count)
board.cache_hierarchy.llcache.tags.ageTaskId_1022::0            2                       # Occupied blocks per task id, per block age (Count)
board.cache_hierarchy.llcache.tags.ageTaskId_1022::1           17                       # Occupied blocks per task id, per block age (Count)
board.cache_hierarchy.llcache.tags.ageTaskId_1022::2          177                       # Occupied blocks per task id, per block age (Count)
board.cache_hierarchy.llcache.tags.ageTaskId_1022::3         1756                       # Occupied blocks per task id, per block age (Count)
board.cache_hierarchy.llcache.tags.ageTaskId_1022::4         5108                       # Occupied blocks per task id, per block age (Count)
board.cache_hierarchy.llcache.tags.ageTaskId_1024::1            1                       # Occupied blocks per task id, per block age (Count)
board.cache_hierarchy.llcache.tags.ageTaskId_1024::2            2                       # Occupied blocks per task id, per block age (Count)
[...]
board.processor.switch.core.executeStats0.instRate     1.135010                       # Inst execution rate ((Count/Cycle))
board.processor.switch.core.executeStats0.numCCRegReads     69060655                       # Number of times the CC registers were read (Count)
board.processor.switch.core.executeStats0.numCCRegWrites     34618474                       # Number of times the CC registers were written (Count)
board.processor.switch.core.executeStats0.numFpRegWrites            0                       # Number of times the floating registers were written (Count)
board.processor.switch.core.executeStats0.numIntAluAccesses    104543241                       # Number of integer alu accesses (Count)
board.processor.switch.core.executeStats0.numIntRegReads    131994138                       # Number of times the integer registers were read (Count)
board.processor.switch.core.executeStats0.numIntRegWrites     80101979                       # Number of times the integer registers were written (Count)
board.processor.switch.core.executeStats0.numMemRefs     25277402                       # Number of memory refs (Count)
board.processor.switch.core.executeStats0.numMiscRegReads     48903768                       # Number of times the Misc registers were read (Count)
board.processor.switch.core.executeStats0.numVecAluAccesses            0                       # Number of vector alu accesses (Count)
board.processor.switch.core.executeStats0.numDiscardedOps            0                       # Number of ops (including micro ops) which were discarded before commit (Count)
board.processor.switch.core.fetch.status::running     38493076     41.05%     41.05% # Number of cycles fetch has run and was not squashing or blocked (Cycle)
board.processor.switch.core.fetch.status::squashing       593840      0.63%     41.68% # Number of cycles fetch has spent squashing (Cycle)
board.processor.switch.core.fetch.status::trapPending         1960      0.00%     41.68% # Number of cycles fetch is waiting for a trap to be processed (Cycle)
board.processor.switch.core.fetch.status::icacheWaitResponse     54688336     58.32%    100.00% # Number of cycles fetch is waiting for the Icache to respond (Cycle)
board.processor.switch.core.fetch.predictedBranches      6227977                       # Number of branches that fetch has predicted taken (Count)
board.processor.switch.core.fetch.cacheLines     18328341                       # Number of cache lines fetched (Count)
board.processor.switch.core.fetch.icacheSquashes       222618                       # Number of outstanding Icache misses that were squashed (Count)
board.processor.switch.core.fetch.nisnDist::samples     93480292                       # Number of instructions fetched each cycle (Total) (Count)
board.processor.switch.core.fetch.nisnDist::mean     1.194929                       # Number of instructions fetched each cycle (Total) (Count)
board.processor.switch.core.fetch.nisnDist::stdev     1.684101                       # Number of instructions fetched each cycle (Total) (Count)
board.processor.switch.core.fetch.nisnDist::underflows            0      0.00%      0.00% # Number of instructions fetched each cycle (Total) (Count)
board.processor.switch.core.fetch.nisnDist::0     57195909     61.18%     61.18% # Number of instructions fetched each cycle (Total) (Count)
board.processor.switch.core.fetch.nisnDist::1      7031362      7.52%     68.71% # Number of instructions fetched each cycle (Total) (Count)
board.processor.switch.core.fetch.nisnDist::2      4956491      5.30%     74.01% # Number of instructions fetched each cycle (Total) (Count)
board.processor.switch.core.fetch.nisnDist::3      2428131      2.60%     76.61% # Number of instructions fetched each cycle (Total) (Count)
board.processor.switch.core.fetch.nisnDist::4     21868399     23.39%    100.00% # Number of instructions fetched each cycle (Total) (Count)
board.processor.switch.core.fetch.nisnDist::overflows            0      0.00%    100.00% # Number of instructions fetched each cycle (Total) (Count)
board.processor.switch.core.fetch.nisnDist::min_value            0                       # Number of instructions fetched each cycle (Total) (Count)
board.processor.switch.core.fetch.nisnDist::max_value            4                       # Number of instructions fetched each cycle (Total) (Count)
board.processor.switch.core.fetch.nisnDist::total     93480292                       # Number of instructions fetched each cycle (Total) (Count)
board.processor.switch.core.fetch.ftNumber::samples     38493076                       # Number of fetch targets processed each cycle (Total) (Count)
board.processor.switch.core.fetch.ftNumber::mean            0                       # Number of fetch targets processed each cycle (Total) (Count)
board.processor.switch.core.fetch.ftNumber::stdev            0                       # Number of fetch targets processed each cycle (Total) (Count)
board.processor.switch.core.fetch.ftNumber::underflows            0      0.00%      0.00% # Number of fetch targets processed each cycle (Total) (Count)
board.processor.switch.core.fetch.ftNumber::0     38493076    100.00%    100.00% # Number of fetch targets processed each cycle (Total) (Count)
board.processor.switch.core.fetch.ftNumber::1            0      0.00%    100.00% # Number of fetch targets processed each cycle (Total) (Count)
board.processor.switch.core.fetch.ftNumber::2            0      0.00%    100.00% # Number of fetch targets processed each cycle (Total) (Count)
board.processor.switch.core.fetch.ftNumber::3            0      0.00%    100.00% # Number of fetch targets processed each cycle (Total) (Count)
board.processor.switch.core.fetch.ftNumber::4            0      0.00%    100.00% # Number of fetch targets processed each cycle (Total) (Count)
board.processor.switch.core.fetch.ftNumber::overflows            0      0.00%    100.00% # Number of fetch targets processed each cycle (Total) (Count)
board.processor.switch.core.fetch.ftNumber::min_value            0                       # Number of fetch targets processed each cycle (Total) (Count)
board.processor.switch.core.fetch.ftNumber::max_value            0                       # Number of fetch targets processed each cycle (Total) (Count)
board.processor.switch.core.fetch.ftNumber::total     38493076                       # Number of fetch targets processed each cycle (Total) (Count)
board.processor.switch.core.fetchStats0.numInsts     56874684                       # Number of instructions fetched (thread level) (Count)
board.processor.switch.core.fetchStats0.numOps            0                       # Number of ops (including micro ops) fetched (thread level) (Count)
board.processor.switch.core.fetchStats0.fetchRate     0.608414                       # Number of inst fetches per cycle ((Count/Cycle))
board.processor.switch.core.fetchStats0.numBranches     13111462                       # Number of branches fetched (Count)
board.processor.switch.core.fetchStats0.branchRate     0.140259                       # Number of branch fetches per cycle (Ratio)
board.processor.switch.core.fetchStats0.icacheStallCycles     54688336                       # ICache total stall cycles (Cycle)
board.processor.switch.core.fetchStats0.numFetchSuspends            0                       # Number of times Execute suspended instruction fetching (Count)
board.processor.switch.core.ftq.inserts             0                       # The number of FTQ insertions (Count)
board.processor.switch.core.ftq.removals            0                       # The number of FTQ removals. Not including squashes (Count)
board.processor.switch.core.ftq.squashes            0                       # The number of FTQ squashes (Count)
board.processor.switch.core.ftq.locks               0                       # The number of times the FTQ got locked. (Count)
board.processor.switch.core.ftq.occupancy::samples            0                       # Distribution of the FTQ occupation. (Count)
board.processor.switch.core.ftq.occupancy::mean          nan                       # Distribution of the FTQ occupation. (Count)
board.processor.switch.core.ftq.occupancy::stdev          nan                       # Distribution of the FTQ occupation. (Count)
board.processor.switch.core.ftq.occupancy::underflows            0                       # Distribution of the FTQ occupation. (Count)
board.processor.switch.core.ftq.occupancy::0-3            0                       # Distribution of the FTQ occupation. (Count)
board.processor.switch.core.ftq.occupancy::4-7            0                       # Distribution of the FTQ occupation. (Count)
board.processor.switch.core.ftq.occupancy::8            0                       # Distribution of the FTQ occupation. (Count)
board.processor.switch.core.ftq.occupancy::overflows            0                       # Distribution of the FTQ occupation. (Count)
board.processor.switch.core.ftq.occupancy::min_value            0                       # Distribution of the FTQ occupation. (Count)
board.processor.switch.core.ftq.occupancy::max_value            0                       # Distribution of the FTQ occupation. (Count)
board.processor.switch.core.ftq.occupancy::total            0                       # Distribution of the FTQ occupation. (Count)
board.processor.switch.core.iew.dispatchStatus::running     92589264     99.05%     99.05% # Number of cycles dispatch is running (Cycle)
board.processor.switch.core.iew.dispatchStatus::blocked       594108      0.64%     99.68% # Number of cycles dispatch is blocked (Cycle)
board.processor.switch.core.iew.dispatchStatus::squashing       296920      0.32%    100.00% # Number of cycles dispatch is squashing (Cycle)
board.processor.switch.core.iew.dispatchedInsts    106324546                       # Number of instructions dispatched to IQ (Count)
board.processor.switch.core.iew.dispSquashedInsts      2077145                       # Number of squashed instructions skipped by dispatch (Count)
board.processor.switch.core.iew.dispLoadInsts     18307968                       # Number of dispatched load instructions (Count)
board.processor.switch.core.iew.dispStoreInsts      7117881                       # Number of dispatched store instructions (Count)
board.processor.switch.core.iew.dispNonSpecInsts            0                       # Number of dispatched non-speculative instructions (Count)
board.processor.switch.core.iew.iqFullEvents            0                       # Number of times the IQ has become full, causing a stall (Count)
board.processor.switch.core.iew.lsqFullEvents            0                       # Number of times the LSQ has become full, causing a stall (Count)
board.processor.switch.core.iew.memOrderViolationEvents            0                       # Number of memory order violations (Count)
board.processor.switch.core.iew.predictedTakenIncorrect           46                       # Number of branches that were predicted taken incorrectly (Count)
board.processor.switch.core.iew.predictedNotTakenIncorrect       370873                       # Number of branches that were predicted not taken incorrectly (Count)
board.processor.switch.core.iew.branchMispredicts       370919                       # Number of branch mispredicts detected at execute (Count)
board.processor.switch.core.iew.instsToCommit    105952635                       # Cumulative count of insts sent to commit (Count)
board.processor.switch.core.iew.writebackCount    105952422                       # Cumulative count of insts written-back (Count)
board.processor.switch.core.iew.producerInst     73218274                       # Number of instructions producing a value (Count)
board.processor.switch.core.iew.consumerInst    111453469                       # Number of instructions consuming a value (Count)
board.processor.switch.core.iew.wbRate       1.133420                       # Insts written-back per cycle ((Count/Cycle))
board.processor.switch.core.iew.wbFanout     0.656940                       # Average fanout of values written-back ((Count/Count))
board.processor.switch.core.lsq0.forwLoads       882793                       # Number of loads that had data forwarded from stores (Count)
board.processor.switch.core.lsq0.squashedLoads       445983                       # Number of loads squashed (Count)
board.processor.switch.core.lsq0.ignoredResponses            0                       # Number of memory responses ignored because the instruction is squashed (Count)
board.processor.switch.core.lsq0.memOrderViolation            0                       # Number of memory ordering violations (Count)
board.processor.switch.core.lsq0.squashedStores       667875                       # Number of stores squashed (Count)
board.processor.switch.core.lsq0.rescheduledLoads            0                       # Number of loads that were rescheduled (Count)
board.processor.switch.core.lsq0.blockedByCache            0                       # Number of times an access to memory failed due to the cache being blocked (Count)
board.processor.switch.core.lsq0.loadToUse::samples     17861985                       # Distribution of cycle latency between the first time a load is issued and its completion (Cycle)
board.processor.switch.core.lsq0.loadToUse::mean     4.991200                       # Distribution of cycle latency between the first time a load is issued and its completion (Cycle)
board.processor.switch.core.lsq0.loadToUse::stdev     0.764329                       # Distribution of cycle latency between the first time a load is issued and its completion (Cycle)
board.processor.switch.core.lsq0.loadToUse::0-9     17861985    100.00%    100.00% # Distribution of cycle latency between the first time a load is issued and its completion (Cycle)
board.processor.switch.core.lsq0.loadToUse::min_value            2                       # Distribution of cycle latency between the first time a load is issued and its completion (Cycle)
board.processor.switch.core.lsq0.loadToUse::max_value            6                       # Distribution of cycle latency between the first time a load is issued and its completion (Cycle)
board.processor.switch.core.lsq0.loadToUse::total     17861985                       # Distribution of cycle latency between the first time a load is issued and its completion (Cycle)
board.processor.switch.core.lsq0.addedLoadsAndStores     25425849                       # Number of loads and stores written to the Load Store Queue (Count)
board.processor.switch.core.lsq0.lqAvgOccupancy         0.04                       # Average LQ Occupancy (UsedSlots/TotalSlots) (Ratio)
board.processor.switch.core.lsq0.sqAvgOccupancy         0.03                       # Average SQ Occupancy (UsedSlots/TotalSlots) (Ratio)
board.processor.switch.core.mmu.dtb.rdAccesses     18233654                       # TLB accesses on read requests (Count)
board.processor.switch.core.mmu.dtb.wrAccesses      7043748                       # TLB accesses on write requests (Count)
board.processor.switch.core.mmu.dtb.exAccesses            0                       # TLB accesses on execute (instr) requests (Count)
board.processor.switch.core.mmu.dtb.rdMisses            0                       # TLB misses on read requests (Count)
board.processor.switch.core.mmu.dtb.wrMisses          219                       # TLB misses on write requests (Count)
board.processor.switch.core.mmu.dtb.exMisses            0                       # TLB misses on execute (instr) requests (Count)
board.processor.switch.core.mmu.dtb.walker.power_state.pwrStateResidencyTicks::UNDEFINED  23370073000                       # Cumulative time (in ticks) in various power states (Tick)
board.processor.switch.core.mmu.itb.rdAccesses            0                       # TLB accesses on read requests (Count)
board.processor.switch.core.mmu.itb.wrAccesses            0                       # TLB accesses on write requests (Count)
board.processor.switch.core.mmu.itb.exAccesses     18328341                       # TLB accesses on execute (instr) requests (Count)
board.processor.switch.core.mmu.itb.rdMisses            0                       # TLB misses on read requests (Count)
board.processor.switch.core.mmu.itb.wrMisses            0                       # TLB misses on write requests (Count)
board.processor.switch.core.mmu.itb.exMisses            0                       # TLB misses on execute (instr) requests (Count)
board.processor.switch.core.mmu.itb.walker.power_state.pwrStateResidencyTicks::UNDEFINED  23370073000                       # Cumulative time (in ticks) in various power states (Tick)
board.processor.switch.core.power_state.pwrStateResidencyTicks::OFF  23370073000                       # Cumulative time (in ticks) in various power states (Tick)
board.processor.switch.core.rename.status::Running     35691010     38.18%     38.18% # Number of cycles rename is running (Cycle)
board.processor.switch.core.rename.status::Idle     56894903     60.86%     99.04% # Number of cycles rename is idle (Cycle)
board.processor.switch.core.rename.status::Squashing       296920      0.32%     99.36% # Number of cycles rename is squashing (Cycle)
board.processor.switch.core.rename.status::Blocked       594108      0.64%    100.00% # Number of cycles rename is blocking (Cycle)
board.processor.switch.core.rename.status::Unblocking         3351      0.00%    100.00% # Number of cycles rename is unblocking (Cycle)
board.processor.switch.core.rename.renamedInsts    110033362                       # Number of instructions processed by rename (Count)
board.processor.switch.core.rename.SQFullEvents         3359                       # Number of times rename has blocked due to SQ full (Count)
board.processor.switch.core.rename.renamedOperands    182149563                       # Number of destination operands rename has renamed (Count)
board.processor.switch.core.rename.lookups    384072939                       # Number of register rename lookups that rename has made (Count)
board.processor.switch.core.rename.intLookups    136446212                       # Number of integer rename lookups (Count)
board.processor.switch.core.rename.committedMaps    171162242                       # Number of HB maps that are committed (Count)
board.processor.switch.core.rename.undoneMaps     10987351                       # Number of HB maps that are undone due to squashing (Count)
board.processor.switch.core.rename.serializing            0                       # count of serializing insts renamed (Count)
board.processor.switch.core.rename.tempSerializing            0                       # count of temporary serializing insts renamed (Count)
board.processor.switch.core.rename.skidInsts           48                       # count of insts added to the skid buffer (Count)
board.processor.switch.core.rename.intReturned     78243427                       # count of registers freed and written back to integer free list (Count)
board.processor.switch.core.rob.reads       201247411                       # The number of ROB reads (Count)
board.processor.switch.core.rob.writes      219620393                       # The number of ROB writes (Count)
board.processor.switch.core.thread_0.numInsts     52235321                       # Number of Instructions committed (Count)
board.processor.switch.core.thread_0.numOps    102683809                       # Number of Ops committed (Count)
board.processor.switch.core.thread_0.numMemRefs     24311991                       # Number of Memory References (Count)
board.workload.inst.arm                             0                       # number of arm instructions executed (Count)
board.workload.inst.quiesce                         0                       # number of quiesce instructions executed (Count)

---------- End Simulation Statistics   ----------
