
---------- Begin Simulation Statistics ----------
simSeconds                                   0.043224                       # Number of seconds simulated (Second)
simTicks                                  43224097000                       # Number of ticks simulated (Tick)
finalTick                                7506809258000                       # Number of ticks from beginning of simulation (restored from checkpoints and never reset) (Tick)
simFreq                                  1000000000000                       # The number of ticks per simulated second ((Tick/Second))
hostSeconds                                    527.77                       # Real time elapsed on the host (Second)
hostTickRate                                 81900192                       # The number of ticks simulated per host second (ticks/s) ((Tick/Second))
hostMemory                                    3426668                       # Number of bytes of host memory used (Byte)
simInsts                                     51289391                       # Number of instructions simulated (Count)
simOps                                       86816248                       # Number of ops (including micro ops) simulated (Count)
hostInstRate                                    97182                       # Simulator instruction rate (inst/s) ((Count/Second))
hostOpRate                                     164498                       # Simulator op (including micro ops) rate (op/s) ((Count/Second))
board.cache_hierarchy.dptw_caches.blockedCycles::no_mshrs            0                       # number of cycles access was blocked (Cycle)
board.cache_hierarchy.dptw_caches.blockedCycles::no_wbuffers            0                       # number of cycles access was blocked (Cycle)
board.cache_hierarchy.dptw_caches.blockedCycles::no_targets            0                       # number of cycles access was blocked (Cycle)
board.cache_hierarchy.dptw_caches.blockedCauses::no_mshrs            0                       # number of times access was blocked (Count)
board.cache_hierarchy.dptw_caches.blockedCauses::no_wbuffers            0                       # number of times access was blocked (Count)
board.cache_hierarchy.dptw_caches.blockedCauses::no_targets            0                       # number of times access was blocked (Count)
board.cache_hierarchy.dptw_caches.avgBlocked::no_mshrs          nan                       # average number of cycles each access was blocked ((Cycle/Count))
board.cache_hierarchy.dptw_caches.avgBlocked::no_wbuffers          nan                       # average number of cycles each access was blocked ((Cycle/Count))
board.cache_hierarchy.dptw_caches.avgBlocked::no_targets          nan                       # average number of cycles each access was blocked ((Cycle/Count))
board.cache_hierarchy.dptw_caches.replacements            0                       # number of replacements (Count)
board.cache_hierarchy.dptw_caches.power_state.pwrStateResidencyTicks::UNDEFINED  43224097000                       # Cumulative time (in ticks) in various power states (Tick)
board.cache_hierarchy.dptw_caches.tags.tagsInUse            0                       # Average ticks per tags in use ((Tick/Count))
board.cache_hierarchy.dptw_caches.tags.totalRefs            0                       # Total number of references to valid blocks. (Count)
board.cache_hierarchy.dptw_caches.tags.sampledRefs            0                       # Sample count of references to valid blocks. (Count)
board.cache_hierarchy.dptw_caches.tags.avgRefs          nan                       # Average number of references to valid blocks. ((Count/Count))
board.cache_hierarchy.dptw_caches.tags.warmupTick            0                       # The tick when the warmup percentage was hit. (Tick)
board.cache_hierarchy.dptw_caches.tags.tagAccesses            0                       # Number of tag accesses (Count)
board.cache_hierarchy.dptw_caches.tags.dataAccesses            0                       # Number of data accesses (Count)
board.cache_hierarchy.dptw_caches.tags.power_state.pwrStateResidencyTicks::UNDEFINED  43224097000                       # Cumulative time (in ticks) in various power states (Tick)
board.cache_hierarchy.iptw_caches.blockedCycles::no_mshrs            0                       # number of cycles access was blocked (Cycle)
board.cache_hierarchy.iptw_caches.blockedCycles::no_wbuffers            0                       # number of cycles access was blocked (Cycle)
board.cache_hierarchy.iptw_caches.blockedCycles::no_targets            0                       # number of cycles access was blocked (Cycle)
board.cache_hierarchy.iptw_caches.blockedCauses::no_mshrs            0                       # number of times access was blocked (Count)
board.cache_hierarchy.iptw_caches.blockedCauses::no_wbuffers            0                       # number of times access was blocked (Count)
board.cache_hierarchy.iptw_caches.blockedCauses::no_targets            0                       # number of times access was blocked (Count)
board.cache_hierarchy.iptw_caches.avgBlocked::no_mshrs          nan                       # average number of cycles each access was blocked ((Cycle/Count))
board.cache_hierarchy.iptw_caches.avgBlocked::no_wbuffers          nan                       # average number of cycles each access was blocked ((Cycle/Count))
board.cache_hierarchy.iptw_caches.avgBlocked::no_targets          nan                       # average number of cycles each access was blocked ((Cycle/Count))
board.cache_hierarchy.iptw_caches.replacements            0                       # number of replacements (Count)
board.cache_hierarchy.iptw_caches.power_state.pwrStateResidencyTicks::UNDEFINED  43224097000                       # Cumulative time (in ticks) in various power states (Tick)
board.cache_hierarchy.iptw_caches.tags.tagsInUse            0                       # Average ticks per tags in use ((Tick/Count))
board.cache_hierarchy.iptw_caches.tags.totalRefs            0                       # Total number of references to valid blocks. (Count)
board.cache_hierarchy.iptw_caches.tags.sampledRefs            0                       # Sample count of references to valid blocks. (Count)
board.cache_hierarchy.iptw_caches.tags.avgRefs          nan                       # Average number of references to valid blocks. ((Count/Count))
board.cache_hierarchy.iptw_caches.tags.warmupTick            0                       # The tick when the warmup percentage was hit. (Tick)
board.cache_hierarchy.iptw_caches.tags.tagAccesses            0                       # Number of tag accesses (Count)
board.cache_hierarchy.iptw_caches.tags.dataAccesses            0                       # Number of data accesses (Count)
board.cache_hierarchy.iptw_caches.tags.power_state.pwrStateResidencyTicks::UNDEFINED  43224097000                       # Cumulative time (in ticks) in various power states (Tick)
board.cache_hierarchy.l1dcaches.demandHits::processor.switch.core.data     24777283                       # number of demand (read+write) hits (Count)
board.cache_hierarchy.l1dcaches.demandHits::total     24777283                       # number of demand (read+write) hits (Count)
board.cache_hierarchy.l1dcaches.overallHits::processor.switch.core.data     24777283                       # number of overall hits (Count)
board.cache_hierarchy.l1dcaches.overallHits::total     24777283                       # number of overall hits (Count)
board.cache_hierarchy.l1dcaches.demandMisses::processor.switch.core.data      1960245                       # number of demand (read+write) misses (Count)
board.cache_hierarchy.l1dcaches.demandMisses::total      1960245                       # number of demand (read+write) misses (Count)
board.cache_hierarchy.l1dcaches.overallMisses::processor.switch.core.data      1960245                       # number of overall misses (Count)
board.cache_hierarchy.l1dcaches.overallMisses::total      1960245                       # number of overall misses (Count)
board.cache_hierarchy.l1dcaches.demandMissLatency::processor.switch.core.data  35168242997                       # number of demand (read+write) miss ticks (Tick)
board.cache_hierarchy.l1dcaches.demandMissLatency::total  35168242997                       # number of demand (read+write) miss ticks (Tick)
board.cache_hierarchy.l1dcaches.overallMissLatency::processor.switch.core.data  35168242997                       # number of overall miss ticks (Tick)
board.cache_hierarchy.l1dcaches.overallMissLatency::total  35168242997                       # number of overall miss ticks (Tick)
board.cache_hierarchy.l1dcaches.demandAccesses::processor.switch.core.data     26737528                       # number of demand (read+write) accesses (Count)
board.cache_hierarchy.l1dcaches.demandAccesses::total     26737528                       # number of demand (read+write) accesses (Count)
board.cache_hierarchy.l1dcaches.overallAccesses::processor.switch.core.data     26737528                       # number of overall (read+write) accesses (Count)
board.cache_hierarchy.l1dcaches.overallAccesses::total     26737528                       # number of overall (read+write) accesses (Count)
board.cache_hierarchy.l1dcaches.demandMissRate::processor.switch.core.data     0.073314                       # miss rate for demand accesses (Ratio)
board.cache_hierarchy.l1dcaches.demandMissRate::total     0.073314                       # miss rate for demand accesses (Ratio)
board.cache_hierarchy.l1dcaches.overallMissRate::processor.switch.core.data     0.073314                       # miss rate for overall accesses (Ratio)
board.cache_hierarchy.l1dcaches.overallMissRate::total     0.073314                       # miss rate for overall accesses (Ratio)
board.cache_hierarchy.l1dcaches.demandAvgMissLatency::processor.switch.core.data 17940.738529                       # average overall miss latency in ticks ((Tick/Count))
board.cache_hierarchy.l1dcaches.demandAvgMissLatency::total 17940.738529                       # average overall miss latency in ticks ((Tick/Count))
board.cache_hierarchy.l1dcaches.overallAvgMissLatency::processor.switch.core.data 17940.738529                       # average overall miss latency ((Tick/Count))
board.cache_hierarchy.l1dcaches.overallAvgMissLatency::total 17940.738529                       # average overall miss latency ((Tick/Count))
board.cache_hierarchy.l1dcaches.blockedCycles::no_mshrs            0                       # number of cycles access was blocked (Cycle)
board.cache_hierarchy.l1dcaches.blockedCycles::no_wbuffers            0                       # number of cycles access was blocked (Cycle)
board.cache_hierarchy.l1dcaches.blockedCycles::no_targets         1148                       # number of cycles access was blocked (Cycle)
board.cache_hierarchy.l1dcaches.blockedCauses::no_mshrs            0                       # number of times access was blocked (Count)
board.cache_hierarchy.l1dcaches.blockedCauses::no_wbuffers            0                       # number of times access was blocked (Count)
board.cache_hierarchy.l1dcaches.blockedCauses::no_targets           11                       # number of times access was blocked (Count)
board.cache_hierarchy.l1dcaches.avgBlocked::no_mshrs          nan                       # average number of cycles each access was blocked ((Cycle/Count))
board.cache_hierarchy.l1dcaches.avgBlocked::no_wbuffers          nan                       # average number of cycles each access was blocked ((Cycle/Count))
board.cache_hierarchy.l1dcaches.avgBlocked::no_targets   104.363636                       # average number of cycles each access was blocked ((Cycle/Count))
board.cache_hierarchy.l1dcaches.writebacks::writebacks      1340899                       # number of writebacks (Count)
board.cache_hierarchy.l1dcaches.writebacks::total      1340899                       # number of writebacks (Count)
board.cache_hierarchy.l1dcaches.demandMshrHits::processor.switch.core.data       578303                       # number of demand (read+write) MSHR hits (Count)
board.cache_hierarchy.l1dcaches.demandMshrHits::total       578303                       # number of demand (read+write) MSHR hits (Count)
board.cache_hierarchy.l1dcaches.overallMshrHits::processor.switch.core.data       578303                       # number of overall MSHR hits (Count)
board.cache_hierarchy.l1dcaches.overallMshrHits::total       578303                       # number of overall MSHR hits (Count)
board.cache_hierarchy.l1dcaches.demandMshrMisses::processor.switch.core.data      1381942                       # number of demand (read+write) MSHR misses (Count)
board.cache_hierarchy.l1dcaches.demandMshrMisses::total      1381942                       # number of demand (read+write) MSHR misses (Count)
board.cache_hierarchy.l1dcaches.overallMshrMisses::cache_hierarchy.l1dcaches.prefetcher      1225411                       # number of overall MSHR misses (Count)
board.cache_hierarchy.l1dcaches.overallMshrMisses::processor.switch.core.data      1381942                       # number of overall MSHR misses (Count)
board.cache_hierarchy.l1dcaches.overallMshrMisses::total      2607353                       # number of overall MSHR misses (Count)
board.cache_hierarchy.l1dcaches.demandMshrMissLatency::processor.switch.core.data  18816619997                       # number of demand (read+write) MSHR miss ticks (Tick)
board.cache_hierarchy.l1dcaches.demandMshrMissLatency::total  18816619997                       # number of demand (read+write) MSHR miss ticks (Tick)
board.cache_hierarchy.l1dcaches.overallMshrMissLatency::cache_hierarchy.l1dcaches.prefetcher  33668382570                       # number of overall MSHR miss ticks (Tick)
board.cache_hierarchy.l1dcaches.overallMshrMissLatency::processor.switch.core.data  18816619997                       # number of overall MSHR miss ticks (Tick)
board.cache_hierarchy.l1dcaches.overallMshrMissLatency::total  52485002567                       # number of overall MSHR miss ticks (Tick)
board.cache_hierarchy.l1dcaches.demandMshrMissRate::processor.switch.core.data     0.051685                       # mshr miss ratio for demand accesses (Ratio)
board.cache_hierarchy.l1dcaches.demandMshrMissRate::total     0.051685                       # mshr miss ratio for demand accesses (Ratio)
board.cache_hierarchy.l1dcaches.overallMshrMissRate::cache_hierarchy.l1dcaches.prefetcher          inf                       # mshr miss ratio for overall accesses (Ratio)
board.cache_hierarchy.l1dcaches.overallMshrMissRate::processor.switch.core.data     0.051685                       # mshr miss ratio for overall accesses (Ratio)
board.cache_hierarchy.l1dcaches.overallMshrMissRate::total     0.097517                       # mshr miss ratio for overall accesses (Ratio)
board.cache_hierarchy.l1dcaches.demandAvgMshrMissLatency::processor.switch.core.data 13616.070716                       # average overall mshr miss latency ((Tick/Count))
board.cache_hierarchy.l1dcaches.demandAvgMshrMissLatency::total 13616.070716                       # average overall mshr miss latency ((Tick/Count))
board.cache_hierarchy.l1dcaches.overallAvgMshrMissLatency::cache_hierarchy.l1dcaches.prefetcher 27475.175733                       # average overall mshr miss latency ((Tick/Count))
board.cache_hierarchy.l1dcaches.overallAvgMshrMissLatency::processor.switch.core.data 13616.070716                       # average overall mshr miss latency ((Tick/Count))
board.cache_hierarchy.l1dcaches.overallAvgMshrMissLatency::total 20129.611359                       # average overall mshr miss latency ((Tick/Count))
board.cache_hierarchy.l1dcaches.replacements      2078381                       # number of replacements (Count)
board.cache_hierarchy.l1dcaches.HardPFReq.mshrMisses::cache_hierarchy.l1dcaches.prefetcher      1225411                       # number of HardPFReq MSHR misses (Count)
board.cache_hierarchy.l1dcaches.HardPFReq.mshrMisses::total      1225411                       # number of HardPFReq MSHR misses (Count)
board.cache_hierarchy.l1dcaches.HardPFReq.mshrMissLatency::cache_hierarchy.l1dcaches.prefetcher  33668382570                       # number of HardPFReq MSHR miss ticks (Tick)
board.cache_hierarchy.l1dcaches.HardPFReq.mshrMissLatency::total  33668382570                       # number of HardPFReq MSHR miss ticks (Tick)
board.cache_hierarchy.l1dcaches.HardPFReq.mshrMissRate::cache_hierarchy.l1dcaches.prefetcher          inf                       # mshr miss rate for HardPFReq accesses (Ratio)
board.cache_hierarchy.l1dcaches.HardPFReq.mshrMissRate::total          inf                       # mshr miss rate for HardPFReq accesses (Ratio)
board.cache_hierarchy.l1dcaches.HardPFReq.avgMshrMissLatency::cache_hierarchy.l1dcaches.prefetcher 27475.175733                       # average HardPFReq mshr miss latency ((Tick/Count))
board.cache_hierarchy.l1dcaches.HardPFReq.avgMshrMissLatency::total 27475.175733                       # average HardPFReq mshr miss latency ((Tick/Count))
board.cache_hierarchy.l1dcaches.ReadReq.hits::processor.switch.core.data     16963516                       # number of ReadReq hits (Count)
board.cache_hierarchy.l1dcaches.ReadReq.hits::total     16963516                       # number of ReadReq hits (Count)
board.cache_hierarchy.l1dcaches.ReadReq.misses::processor.switch.core.data      1162743                       # number of ReadReq misses (Count)
board.cache_hierarchy.l1dcaches.ReadReq.misses::total      1162743                       # number of ReadReq misses (Count)
board.cache_hierarchy.l1dcaches.ReadReq.missLatency::processor.switch.core.data  27385571000                       # number of ReadReq miss ticks (Tick)
board.cache_hierarchy.l1dcaches.ReadReq.missLatency::total  27385571000                       # number of ReadReq miss ticks (Tick)
board.cache_hierarchy.l1dcaches.ReadReq.accesses::processor.switch.core.data     18126259                       # number of ReadReq accesses(hits+misses) (Count)
board.cache_hierarchy.l1dcaches.ReadReq.accesses::total     18126259                       # number of ReadReq accesses(hits+misses) (Count)
board.cache_hierarchy.l1dcaches.ReadReq.missRate::processor.switch.core.data     0.064147                       # miss rate for ReadReq accesses (Ratio)
board.cache_hierarchy.l1dcaches.ReadReq.missRate::total     0.064147                       # miss rate for ReadReq accesses (Ratio)
board.cache_hierarchy.l1dcaches.ReadReq.avgMissLatency::processor.switch.core.data 23552.557186                       # average ReadReq miss latency ((Tick/Count))
board.cache_hierarchy.l1dcaches.ReadReq.avgMissLatency::total 23552.557186                       # average ReadReq miss latency ((Tick/Count))
board.cache_hierarchy.l1dcaches.ReadReq.mshrHits::processor.switch.core.data       530354                       # number of ReadReq MSHR hits (Count)
board.cache_hierarchy.l1dcaches.ReadReq.mshrHits::total       530354                       # number of ReadReq MSHR hits (Count)
board.cache_hierarchy.l1dcaches.ReadReq.mshrMisses::processor.switch.core.data       632389                       # number of ReadReq MSHR misses (Count)
board.cache_hierarchy.l1dcaches.ReadReq.mshrMisses::total       632389                       # number of ReadReq MSHR misses (Count)
board.cache_hierarchy.l1dcaches.ReadReq.mshrMissLatency::processor.switch.core.data  12179076500                       # number of ReadReq MSHR miss ticks (Tick)
board.cache_hierarchy.l1dcaches.ReadReq.mshrMissLatency::total  12179076500                       # number of ReadReq MSHR miss ticks (Tick)
board.cache_hierarchy.l1dcaches.ReadReq.mshrMissRate::processor.switch.core.data     0.034888                       # mshr miss rate for ReadReq accesses (Ratio)
board.cache_hierarchy.l1dcaches.ReadReq.mshrMissRate::total     0.034888                       # mshr miss rate for ReadReq accesses (Ratio)
board.cache_hierarchy.l1dcaches.ReadReq.avgMshrMissLatency::processor.switch.core.data 19258.836729                       # average ReadReq mshr miss latency ((Tick/Count))
board.cache_hierarchy.l1dcaches.ReadReq.avgMshrMissLatency::total 19258.836729                       # average ReadReq mshr miss latency ((Tick/Count))
board.cache_hierarchy.l1dcaches.WriteReq.hits::processor.switch.core.data      7813767                       # number of WriteReq hits (Count)
board.cache_hierarchy.l1dcaches.WriteReq.hits::total      7813767                       # number of WriteReq hits (Count)
board.cache_hierarchy.l1dcaches.WriteReq.misses::processor.switch.core.data       797502                       # number of WriteReq misses (Count)
board.cache_hierarchy.l1dcaches.WriteReq.misses::total       797502                       # number of WriteReq misses (Count)
board.cache_hierarchy.l1dcaches.WriteReq.missLatency::processor.switch.core.data   7782671997                       # number of WriteReq miss ticks (Tick)
board.cache_hierarchy.l1dcaches.WriteReq.missLatency::total   7782671997                       # number of WriteReq miss ticks (Tick)
board.cache_hierarchy.l1dcaches.WriteReq.accesses::processor.switch.core.data      8611269                       # number of WriteReq accesses(hits+misses) (Count)
board.cache_hierarchy.l1dcaches.WriteReq.accesses::total      8611269                       # number of WriteReq accesses(hits+misses) (Count)
board.cache_hierarchy.l1dcaches.WriteReq.missRate::processor.switch.core.data     0.092611                       # miss rate for WriteReq accesses (Ratio)
board.cache_hierarchy.l1dcaches.WriteReq.missRate::total     0.092611                       # miss rate for WriteReq accesses (Ratio)
board.cache_hierarchy.l1dcaches.WriteReq.avgMissLatency::processor.switch.core.data  9758.811886                       # average WriteReq miss latency ((Tick/Count))
board.cache_hierarchy.l1dcaches.WriteReq.avgMissLatency::total  9758.811886                       # average WriteReq miss latency ((Tick/Count))
board.cache_hierarchy.l1dcaches.WriteReq.mshrHits::processor.switch.core.data        47949                       # number of WriteReq MSHR hits (Count)
board.cache_hierarchy.l1dcaches.WriteReq.mshrHits::total        47949                       # number of WriteReq MSHR hits (Count)
board.cache_hierarchy.l1dcaches.WriteReq.mshrMisses::processor.switch.core.data       749553                       # number of WriteReq MSHR misses (Count)
board.cache_hierarchy.l1dcaches.WriteReq.mshrMisses::total       749553                       # number of WriteReq MSHR misses (Count)
board.cache_hierarchy.l1dcaches.WriteReq.mshrMissLatency::processor.switch.core.data   6637543497                       # number of WriteReq MSHR miss ticks (Tick)
board.cache_hierarchy.l1dcaches.WriteReq.mshrMissLatency::total   6637543497                       # number of WriteReq MSHR miss ticks (Tick)
board.cache_hierarchy.l1dcaches.WriteReq.mshrMissRate::processor.switch.core.data     0.087043                       # mshr miss rate for WriteReq accesses (Ratio)
board.cache_hierarchy.l1dcaches.WriteReq.mshrMissRate::total     0.087043                       # mshr miss rate for WriteReq accesses (Ratio)
board.cache_hierarchy.l1dcaches.WriteReq.avgMshrMissLatency::processor.switch.core.data  8855.335776                       # average WriteReq mshr miss latency ((Tick/Count))
board.cache_hierarchy.l1dcaches.WriteReq.avgMshrMissLatency::total  8855.335776                       # average WriteReq mshr miss latency ((Tick/Count))
board.cache_hierarchy.l1dcaches.power_state.pwrStateResidencyTicks::UNDEFINED  43224097000                       # Cumulative time (in ticks) in various power states (Tick)
board.cache_hierarchy.l1dcaches.prefetcher.demandMshrMisses      1381942                       # demands not covered by prefetchs (Count)
board.cache_hierarchy.l1dcaches.prefetcher.pfIssued      3609586                       # number of hwpf issued (Count)
board.cache_hierarchy.l1dcaches.prefetcher.pfUnused        66821                       # number of HardPF blocks evicted w/o reference (Count)
board.cache_hierarchy.l1dcaches.prefetcher.pfUseful      1507036                       # number of useful prefetch (Count)
board.cache_hierarchy.l1dcaches.prefetcher.pfUsefulButMiss       420407                       # number of hit on prefetch but cache block is not in an usable state (Count)
board.cache_hierarchy.l1dcaches.prefetcher.accuracy     0.417509                       # accuracy of the prefetcher (Count)
board.cache_hierarchy.l1dcaches.prefetcher.coverage     0.521650                       # coverage brought by this prefetcher (Count)
board.cache_hierarchy.l1dcaches.prefetcher.pfHitInCache      1752768                       # number of prefetches hitting in cache (Count)
board.cache_hierarchy.l1dcaches.prefetcher.pfHitInMSHR       631402                       # number of prefetches hitting in a MSHR (Count)
board.cache_hierarchy.l1dcaches.prefetcher.pfHitInWB            5                       # number of prefetches hit in the Write Buffer (Count)
board.cache_hierarchy.l1dcaches.prefetcher.pfLate      2384175                       # number of late prefetches (hitting in cache, MSHR or WB) (Count)
board.cache_hierarchy.l1dcaches.prefetcher.pfIdentified      3695841                       # number of prefetch candidates identified (Count)
board.cache_hierarchy.l1dcaches.prefetcher.pfBufferHit        51895                       # number of redundant prefetches already in prefetch queue (Count)
board.cache_hierarchy.l1dcaches.prefetcher.pfInCache            0                       # number of redundant prefetches already in cache/mshr dropped (Count)
board.cache_hierarchy.l1dcaches.prefetcher.pfRemovedDemand        10705                       # number of prefetches dropped due to a demand for the same address (Count)
board.cache_hierarchy.l1dcaches.prefetcher.pfRemovedFull            0                       # number of prefetches dropped due to prefetch queue size (Count)
board.cache_hierarchy.l1dcaches.prefetcher.pfSpanPage       122214                       # number of prefetches that crossed the page (Count)
board.cache_hierarchy.l1dcaches.prefetcher.pfUsefulSpanPage       103122                       # number of prefetches that is useful and crossed the page (Count)
board.cache_hierarchy.l1dcaches.prefetcher.power_state.pwrStateResidencyTicks::UNDEFINED  43224097000                       # Cumulative time (in ticks) in various power states (Tick)
board.cache_hierarchy.l1dcaches.tags.tagsInUse          512                       # Average ticks per tags in use ((Tick/Count))
board.cache_hierarchy.l1dcaches.tags.totalRefs     27437380                       # Total number of references to valid blocks. (Count)
board.cache_hierarchy.l1dcaches.tags.sampledRefs      2078381                       # Sample count of references to valid blocks. (Count)
board.cache_hierarchy.l1dcaches.tags.avgRefs    13.201324                       # Average number of references to valid blocks. ((Count/Count))
board.cache_hierarchy.l1dcaches.tags.warmupTick            0                       # The tick when the warmup percentage was hit. (Tick)
board.cache_hierarchy.l1dcaches.tags.occupancies::cache_hierarchy.l1dcaches.prefetcher   354.301508                       # Average occupied blocks per tick, per requestor ((Count/Tick))
board.cache_hierarchy.l1dcaches.tags.occupancies::processor.switch.core.data   157.698492                       # Average occupied blocks per tick, per requestor ((Count/Tick))
board.cache_hierarchy.l1dcaches.tags.avgOccs::cache_hierarchy.l1dcaches.prefetcher     0.691995                       # Average percentage of cache occupancy ((Ratio/Tick))
board.cache_hierarchy.l1dcaches.tags.avgOccs::processor.switch.core.data     0.308005                       # Average percentage of cache occupancy ((Ratio/Tick))
board.cache_hierarchy.l1dcaches.tags.avgOccs::total            1                       # Average percentage of cache occupancy ((Ratio/Tick))
board.cache_hierarchy.l1dcaches.tags.occupanciesTaskId::1022          491                       # Occupied blocks per task id (Count)
board.cache_hierarchy.l1dcaches.tags.occupanciesTaskId::1024           21                       # Occupied blocks per task id (Count)
board.cache_hierarchy.l1dcaches.tags.ageTaskId_1022::0          157                       # Occupied blocks per task id, per block age (Count)
board.cache_hierarchy.l1dcaches.tags.ageTaskId_1022::1          334                       # Occupied blocks per task id, per block age (Count)
board.cache_hierarchy.l1dcaches.tags.ageTaskId_1024::0            5                       # Occupied blocks per task id, per block age (Count)
board.cache_hierarchy.l1dcaches.tags.ageTaskId_1024::1           15                       # Occupied blocks per task id, per block age (Count)
board.cache_hierarchy.l1dcaches.tags.ageTaskId_1024::2            1                       # Occupied blocks per task id, per block age (Count)
board.cache_hierarchy.l1dcaches.tags.ratioOccsTaskId::1022     0.958984                       # Ratio of occupied blocks and all blocks, per task id (Ratio)
board.cache_hierarchy.l1dcaches.tags.ratioOccsTaskId::1024     0.041016                       # Ratio of occupied blocks and all blocks, per task id (Ratio)
board.cache_hierarchy.l1dcaches.tags.tagAccesses    215978605                       # Number of tag accesses (Count)
board.cache_hierarchy.l1dcaches.tags.dataAccesses    215978605                       # Number of data accesses (Count)
board.cache_hierarchy.l1dcaches.tags.power_state.pwrStateResidencyTicks::UNDEFINED  43224097000                       # Cumulative time (in ticks) in various power states (Tick)
board.cache_hierarchy.l1icaches.demandHits::processor.switch.core.inst     30620303                       # number of demand (read+write) hits (Count)
board.cache_hierarchy.l1icaches.demandHits::total     30620303                       # number of demand (read+write) hits (Count)
board.cache_hierarchy.l1icaches.overallHits::processor.switch.core.inst     30620303                       # number of overall hits (Count)
board.cache_hierarchy.l1icaches.overallHits::total     30620303                       # number of overall hits (Count)
board.cache_hierarchy.l1icaches.demandMisses::processor.switch.core.inst         2948                       # number of demand (read+write) misses (Count)
board.cache_hierarchy.l1icaches.demandMisses::total         2948                       # number of demand (read+write) misses (Count)
board.cache_hierarchy.l1icaches.overallMisses::processor.switch.core.inst         2948                       # number of overall misses (Count)
board.cache_hierarchy.l1icaches.overallMisses::total         2948                       # number of overall misses (Count)
board.cache_hierarchy.l1icaches.demandMissLatency::processor.switch.core.inst    135527500                       # number of demand (read+write) miss ticks (Tick)
board.cache_hierarchy.l1icaches.demandMissLatency::total    135527500                       # number of demand (read+write) miss ticks (Tick)
board.cache_hierarchy.l1icaches.overallMissLatency::processor.switch.core.inst    135527500                       # number of overall miss ticks (Tick)
board.cache_hierarchy.l1icaches.overallMissLatency::total    135527500                       # number of overall miss ticks (Tick)
board.cache_hierarchy.l1icaches.demandAccesses::processor.switch.core.inst     30623251                       # number of demand (read+write) accesses (Count)
board.cache_hierarchy.l1icaches.demandAccesses::total     30623251                       # number of demand (read+write) accesses (Count)
board.cache_hierarchy.l1icaches.overallAccesses::processor.switch.core.inst     30623251                       # number of overall (read+write) accesses (Count)
board.cache_hierarchy.l1icaches.overallAccesses::total     30623251                       # number of overall (read+write) accesses (Count)
board.cache_hierarchy.l1icaches.demandMissRate::processor.switch.core.inst     0.000096                       # miss rate for demand accesses (Ratio)
board.cache_hierarchy.l1icaches.demandMissRate::total     0.000096                       # miss rate for demand accesses (Ratio)
board.cache_hierarchy.l1icaches.overallMissRate::processor.switch.core.inst     0.000096                       # miss rate for overall accesses (Ratio)
board.cache_hierarchy.l1icaches.overallMissRate::total     0.000096                       # miss rate for overall accesses (Ratio)
board.cache_hierarchy.l1icaches.demandAvgMissLatency::processor.switch.core.inst 45972.693351                       # average overall miss latency in ticks ((Tick/Count))
board.cache_hierarchy.l1icaches.demandAvgMissLatency::total 45972.693351                       # average overall miss latency in ticks ((Tick/Count))
board.cache_hierarchy.l1icaches.overallAvgMissLatency::processor.switch.core.inst 45972.693351                       # average overall miss latency ((Tick/Count))
board.cache_hierarchy.l1icaches.overallAvgMissLatency::total 45972.693351                       # average overall miss latency ((Tick/Count))
board.cache_hierarchy.l1icaches.blockedCycles::no_mshrs            0                       # number of cycles access was blocked (Cycle)
board.cache_hierarchy.l1icaches.blockedCycles::no_wbuffers            0                       # number of cycles access was blocked (Cycle)
board.cache_hierarchy.l1icaches.blockedCycles::no_targets            0                       # number of cycles access was blocked (Cycle)
board.cache_hierarchy.l1icaches.blockedCauses::no_mshrs            0                       # number of times access was blocked (Count)
board.cache_hierarchy.l1icaches.blockedCauses::no_wbuffers            0                       # number of times access was blocked (Count)
board.cache_hierarchy.l1icaches.blockedCauses::no_targets            0                       # number of times access was blocked (Count)
board.cache_hierarchy.l1icaches.avgBlocked::no_mshrs          nan                       # average number of cycles each access was blocked ((Cycle/Count))
board.cache_hierarchy.l1icaches.avgBlocked::no_wbuffers          nan                       # average number of cycles each access was blocked ((Cycle/Count))
board.cache_hierarchy.l1icaches.avgBlocked::no_targets          nan                       # average number of cycles each access was blocked ((Cycle/Count))
board.cache_hierarchy.l1icaches.demandMshrHits::processor.switch.core.inst          461                       # number of demand (read+write) MSHR hits (Count)
board.cache_hierarchy.l1icaches.demandMshrHits::total          461                       # number of demand (read+write) MSHR hits (Count)
board.cache_hierarchy.l1icaches.overallMshrHits::processor.switch.core.inst          461                       # number of overall MSHR hits (Count)
board.cache_hierarchy.l1icaches.overallMshrHits::total          461                       # number of overall MSHR hits (Count)
board.cache_hierarchy.l1icaches.demandMshrMisses::processor.switch.core.inst         2487                       # number of demand (read+write) MSHR misses (Count)
board.cache_hierarchy.l1icaches.demandMshrMisses::total         2487                       # number of demand (read+write) MSHR misses (Count)
board.cache_hierarchy.l1icaches.overallMshrMisses::processor.switch.core.inst         2487                       # number of overall MSHR misses (Count)
board.cache_hierarchy.l1icaches.overallMshrMisses::total         2487                       # number of overall MSHR misses (Count)
board.cache_hierarchy.l1icaches.demandMshrMissLatency::processor.switch.core.inst    119260750                       # number of demand (read+write) MSHR miss ticks (Tick)
board.cache_hierarchy.l1icaches.demandMshrMissLatency::total    119260750                       # number of demand (read+write) MSHR miss ticks (Tick)
board.cache_hierarchy.l1icaches.overallMshrMissLatency::processor.switch.core.inst    119260750                       # number of overall MSHR miss ticks (Tick)
board.cache_hierarchy.l1icaches.overallMshrMissLatency::total    119260750                       # number of overall MSHR miss ticks (Tick)
board.cache_hierarchy.l1icaches.demandMshrMissRate::processor.switch.core.inst     0.000081                       # mshr miss ratio for demand accesses (Ratio)
board.cache_hierarchy.l1icaches.demandMshrMissRate::total     0.000081                       # mshr miss ratio for demand accesses (Ratio)
board.cache_hierarchy.l1icaches.overallMshrMissRate::processor.switch.core.inst     0.000081                       # mshr miss ratio for overall accesses (Ratio)
board.cache_hierarchy.l1icaches.overallMshrMissRate::total     0.000081                       # mshr miss ratio for overall accesses (Ratio)
board.cache_hierarchy.l1icaches.demandAvgMshrMissLatency::processor.switch.core.inst 47953.659027                       # average overall mshr miss latency ((Tick/Count))
board.cache_hierarchy.l1icaches.demandAvgMshrMissLatency::total 47953.659027                       # average overall mshr miss latency ((Tick/Count))
board.cache_hierarchy.l1icaches.overallAvgMshrMissLatency::processor.switch.core.inst 47953.659027                       # average overall mshr miss latency ((Tick/Count))
board.cache_hierarchy.l1icaches.overallAvgMshrMissLatency::total 47953.659027                       # average overall mshr miss latency ((Tick/Count))
board.cache_hierarchy.l1icaches.replacements         2486                       # number of replacements (Count)
board.cache_hierarchy.l1icaches.ReadReq.hits::processor.switch.core.inst     30620303                       # number of ReadReq hits (Count)
board.cache_hierarchy.l1icaches.ReadReq.hits::total     30620303                       # number of ReadReq hits (Count)
board.cache_hierarchy.l1icaches.ReadReq.misses::processor.switch.core.inst         2948                       # number of ReadReq misses (Count)
board.cache_hierarchy.l1icaches.ReadReq.misses::total         2948                       # number of ReadReq misses (Count)
board.cache_hierarchy.l1icaches.ReadReq.missLatency::processor.switch.core.inst    135527500                       # number of ReadReq miss ticks (Tick)
board.cache_hierarchy.l1icaches.ReadReq.missLatency::total    135527500                       # number of ReadReq miss ticks (Tick)
board.cache_hierarchy.l1icaches.ReadReq.accesses::processor.switch.core.inst     30623251                       # number of ReadReq accesses(hits+misses) (Count)
board.cache_hierarchy.l1icaches.ReadReq.accesses::total     30623251                       # number of ReadReq accesses(hits+misses) (Count)
board.cache_hierarchy.l1icaches.ReadReq.missRate::processor.switch.core.inst     0.000096                       # miss rate for ReadReq accesses (Ratio)
board.cache_hierarchy.l1icaches.ReadReq.missRate::total     0.000096                       # miss rate for ReadReq accesses (Ratio)
board.cache_hierarchy.l1icaches.ReadReq.avgMissLatency::processor.switch.core.inst 45972.693351                       # average ReadReq miss latency ((Tick/Count))
board.cache_hierarchy.l1icaches.ReadReq.avgMissLatency::total 45972.693351                       # average ReadReq miss latency ((Tick/Count))
board.cache_hierarchy.l1icaches.ReadReq.mshrHits::processor.switch.core.inst          461                       # number of ReadReq MSHR hits (Count)
board.cache_hierarchy.l1icaches.ReadReq.mshrHits::total          461                       # number of ReadReq MSHR hits (Count)
board.cache_hierarchy.l1icaches.ReadReq.mshrMisses::processor.switch.core.inst         2487                       # number of ReadReq MSHR misses (Count)
board.cache_hierarchy.l1icaches.ReadReq.mshrMisses::total         2487                       # number of ReadReq MSHR misses (Count)
board.cache_hierarchy.l1icaches.ReadReq.mshrMissLatency::processor.switch.core.inst    119260750                       # number of ReadReq MSHR miss ticks (Tick)
board.cache_hierarchy.l1icaches.ReadReq.mshrMissLatency::total    119260750                       # number of ReadReq MSHR miss ticks (Tick)
board.cache_hierarchy.l1icaches.ReadReq.mshrMissRate::processor.switch.core.inst     0.000081                       # mshr miss rate for ReadReq accesses (Ratio)
board.cache_hierarchy.l1icaches.ReadReq.mshrMissRate::total     0.000081                       # mshr miss rate for ReadReq accesses (Ratio)
board.cache_hierarchy.l1icaches.ReadReq.avgMshrMissLatency::processor.switch.core.inst 47953.659027                       # average ReadReq mshr miss latency ((Tick/Count))
board.cache_hierarchy.l1icaches.ReadReq.avgMshrMissLatency::total 47953.659027                       # average ReadReq mshr miss latency ((Tick/Count))
board.cache_hierarchy.l1icaches.power_state.pwrStateResidencyTicks::UNDEFINED  43224097000                       # Cumulative time (in ticks) in various power states (Tick)
board.cache_hierarchy.l1icaches.tags.tagsInUse   511.999999                       # Average ticks per tags in use ((Tick/Count))
board.cache_hierarchy.l1icaches.tags.totalRefs     27820195                       # Total number of references to valid blocks. (Count)
board.cache_hierarchy.l1icaches.tags.sampledRefs         2487                       # Sample count of references to valid blocks. (Count)
board.cache_hierarchy.l1icaches.tags.avgRefs 11186.246482                       # Average number of references to valid blocks. ((Count/Count))
board.cache_hierarchy.l1icaches.tags.warmupTick            0                       # The tick when the warmup percentage was hit. (Tick)
board.cache_hierarchy.l1icaches.tags.occupancies::processor.switch.core.inst   511.999999                       # Average occupied blocks per tick, per requestor ((Count/Tick))
board.cache_hierarchy.l1icaches.tags.avgOccs::processor.switch.core.inst     1.000000                       # Average percentage of cache occupancy ((Ratio/Tick))
board.cache_hierarchy.l1icaches.tags.avgOccs::total     1.000000                       # Average percentage of cache occupancy ((Ratio/Tick))
board.cache_hierarchy.l1icaches.tags.occupanciesTaskId::1024          512                       # Occupied blocks per task id (Count)
board.cache_hierarchy.l1icaches.tags.ageTaskId_1024::2           54                       # Occupied blocks per task id, per block age (Count)
board.cache_hierarchy.l1icaches.tags.ageTaskId_1024::3          351                       # Occupied blocks per task id, per block age (Count)
board.cache_hierarchy.l1icaches.tags.ageTaskId_1024::4          107                       # Occupied blocks per task id, per block age (Count)
board.cache_hierarchy.l1icaches.tags.ratioOccsTaskId::1024            1                       # Ratio of occupied blocks and all blocks, per task id (Ratio)
board.cache_hierarchy.l1icaches.tags.tagAccesses    244988495                       # Number of tag accesses (Count)
board.cache_hierarchy.l1icaches.tags.dataAccesses    244988495                       # Number of data accesses (Count)
board.cache_hierarchy.l1icaches.tags.power_state.pwrStateResidencyTicks::UNDEFINED  43224097000                       # Cumulative time (in ticks) in various power states (Tick)
board.cache_hierarchy.l2buses.transDist::ReadResp      1860286                       # Transaction distribution (Count)
board.cache_hierarchy.l2buses.transDist::WritebackDirty      2440240                       # Transaction distribution (Count)
board.cache_hierarchy.l2buses.transDist::CleanEvict      1170365                       # Transaction distribution (Count)
board.cache_hierarchy.l2buses.transDist::UpgradeReq       529121                       # Transaction distribution (Count)
board.cache_hierarchy.l2buses.transDist::UpgradeResp       529121                       # Transaction distribution (Count)
board.cache_hierarchy.l2buses.transDist::ReadExReq       220582                       # Transaction distribution (Count)
board.cache_hierarchy.l2buses.transDist::ReadExResp       220582                       # Transaction distribution (Count)
board.cache_hierarchy.l2buses.transDist::ReadSharedReq      1860286                       # Transaction distribution (Count)
board.cache_hierarchy.l2buses.pktCount_board.cache_hierarchy.l1icaches.mem_side_port::board.cache_hierarchy.l2caches.cpu_side_port         7459                       # Packet count per connected requestor and responder (Count)
board.cache_hierarchy.l2buses.pktCount_board.cache_hierarchy.l1dcaches.mem_side_port::board.cache_hierarchy.l2caches.cpu_side_port      7293385                       # Packet count per connected requestor and responder (Count)
board.cache_hierarchy.l2buses.pktCount::total      7300844                       # Packet count per connected requestor and responder (Count)
board.cache_hierarchy.l2buses.pktSize_board.cache_hierarchy.l1icaches.mem_side_port::board.cache_hierarchy.l2caches.cpu_side_port       159104                       # Cumulative packet size per connected requestor and responder (Byte)
board.cache_hierarchy.l2buses.pktSize_board.cache_hierarchy.l1dcaches.mem_side_port::board.cache_hierarchy.l2caches.cpu_side_port    218833920                       # Cumulative packet size per connected requestor and responder (Byte)
board.cache_hierarchy.l2buses.pktSize::total    218993024                       # Cumulative packet size per connected requestor and responder (Byte)
board.cache_hierarchy.l2buses.snoops          1529739                       # Total snoops (Count)
board.cache_hierarchy.l2buses.snoopTraffic     70357888                       # Total snoop traffic (Byte)
board.cache_hierarchy.l2buses.snoopFanout::samples      4139727                       # Request fanout histogram (Count)
board.cache_hierarchy.l2buses.snoopFanout::mean     0.000886                       # Request fanout histogram (Count)
board.cache_hierarchy.l2buses.snoopFanout::stdev     0.029822                       # Request fanout histogram (Count)
board.cache_hierarchy.l2buses.snoopFanout::underflows            0      0.00%      0.00% # Request fanout histogram (Count)
board.cache_hierarchy.l2buses.snoopFanout::0      4136069     99.91%     99.91% # Request fanout histogram (Count)
board.cache_hierarchy.l2buses.snoopFanout::1         3649      0.09%    100.00% # Request fanout histogram (Count)
board.cache_hierarchy.l2buses.snoopFanout::2            9      0.00%    100.00% # Request fanout histogram (Count)
board.cache_hierarchy.l2buses.snoopFanout::3            0      0.00%    100.00% # Request fanout histogram (Count)
board.cache_hierarchy.l2buses.snoopFanout::4            0      0.00%    100.00% # Request fanout histogram (Count)
board.cache_hierarchy.l2buses.snoopFanout::overflows            0      0.00%    100.00% # Request fanout histogram (Count)
board.cache_hierarchy.l2buses.snoopFanout::min_value            0                       # Request fanout histogram (Count)
board.cache_hierarchy.l2buses.snoopFanout::max_value            2                       # Request fanout histogram (Count)
board.cache_hierarchy.l2buses.snoopFanout::total      4139727                       # Request fanout histogram (Count)
board.cache_hierarchy.l2buses.power_state.pwrStateResidencyTicks::UNDEFINED  43224097000                       # Cumulative time (in ticks) in various power states (Tick)
board.cache_hierarchy.l2buses.reqLayer0.occupancy   1770942547                       # Layer occupancy (ticks) (Tick)
board.cache_hierarchy.l2buses.reqLayer0.utilization          0.0                       # Layer utilization (Ratio)
board.cache_hierarchy.l2buses.respLayer0.occupancy      1245741                       # Layer occupancy (ticks) (Tick)
board.cache_hierarchy.l2buses.respLayer0.utilization          0.0                       # Layer utilization (Ratio)
board.cache_hierarchy.l2buses.respLayer1.occupancy   1171470750                       # Layer occupancy (ticks) (Tick)
board.cache_hierarchy.l2buses.respLayer1.utilization          0.0                       # Layer utilization (Ratio)
board.cache_hierarchy.l2buses.snoop_filter.totRequests      4690856                       # Total number of requests made to the snoop filter. (Count)
board.cache_hierarchy.l2buses.snoop_filter.hitSingleRequests      2609982                       # Number of requests hitting in the snoop filter with a single holder of the requested data. (Count)
board.cache_hierarchy.l2buses.snoop_filter.hitMultiRequests          260                       # Number of requests hitting in the snoop filter with multiple (>1) holders of the requested data. (Count)
board.cache_hierarchy.l2buses.snoop_filter.totSnoops         3399                       # Total number of snoops made to the snoop filter. (Count)
board.cache_hierarchy.l2buses.snoop_filter.hitSingleSnoops         3390                       # Number of snoops hitting in the snoop filter with a single holder of the requested data. (Count)
board.cache_hierarchy.l2buses.snoop_filter.hitMultiSnoops            9                       # Number of snoops hitting in the snoop filter with multiple (>1) holders of the requested data. (Count)
board.cache_hierarchy.l2caches.demandHits::cache_hierarchy.l1dcaches.prefetcher       130600                       # number of demand (read+write) hits (Count)
board.cache_hierarchy.l2caches.demandHits::processor.switch.core.inst           12                       # number of demand (read+write) hits (Count)
board.cache_hierarchy.l2caches.demandHits::processor.switch.core.data       421447                       # number of demand (read+write) hits (Count)
board.cache_hierarchy.l2caches.demandHits::total       552059                       # number of demand (read+write) hits (Count)
board.cache_hierarchy.l2caches.overallHits::cache_hierarchy.l1dcaches.prefetcher       130600                       # number of overall hits (Count)
board.cache_hierarchy.l2caches.overallHits::processor.switch.core.inst           12                       # number of overall hits (Count)
board.cache_hierarchy.l2caches.overallHits::processor.switch.core.data       421447                       # number of overall hits (Count)
board.cache_hierarchy.l2caches.overallHits::total       552059                       # number of overall hits (Count)
board.cache_hierarchy.l2caches.demandMisses::cache_hierarchy.l1dcaches.prefetcher      1094811                       # number of demand (read+write) misses (Count)
board.cache_hierarchy.l2caches.demandMisses::processor.switch.core.inst         2474                       # number of demand (read+write) misses (Count)
board.cache_hierarchy.l2caches.demandMisses::processor.switch.core.data       431523                       # number of demand (read+write) misses (Count)
board.cache_hierarchy.l2caches.demandMisses::total      1528808                       # number of demand (read+write) misses (Count)
board.cache_hierarchy.l2caches.overallMisses::cache_hierarchy.l1dcaches.prefetcher      1094811                       # number of overall misses (Count)
board.cache_hierarchy.l2caches.overallMisses::processor.switch.core.inst         2474                       # number of overall misses (Count)
board.cache_hierarchy.l2caches.overallMisses::processor.switch.core.data       431523                       # number of overall misses (Count)
board.cache_hierarchy.l2caches.overallMisses::total      1528808                       # number of overall misses (Count)
board.cache_hierarchy.l2caches.demandMissLatency::cache_hierarchy.l1dcaches.prefetcher  32769535493                       # number of demand (read+write) miss ticks (Tick)
board.cache_hierarchy.l2caches.demandMissLatency::processor.switch.core.inst    116061250                       # number of demand (read+write) miss ticks (Tick)
board.cache_hierarchy.l2caches.demandMissLatency::processor.switch.core.data  13417564750                       # number of demand (read+write) miss ticks (Tick)
board.cache_hierarchy.l2caches.demandMissLatency::total  46303161493                       # number of demand (read+write) miss ticks (Tick)
board.cache_hierarchy.l2caches.overallMissLatency::cache_hierarchy.l1dcaches.prefetcher  32769535493                       # number of overall miss ticks (Tick)
board.cache_hierarchy.l2caches.overallMissLatency::processor.switch.core.inst    116061250                       # number of overall miss ticks (Tick)
board.cache_hierarchy.l2caches.overallMissLatency::processor.switch.core.data  13417564750                       # number of overall miss ticks (Tick)
board.cache_hierarchy.l2caches.overallMissLatency::total  46303161493                       # number of overall miss ticks (Tick)
board.cache_hierarchy.l2caches.demandAccesses::cache_hierarchy.l1dcaches.prefetcher      1225411                       # number of demand (read+write) accesses (Count)
board.cache_hierarchy.l2caches.demandAccesses::processor.switch.core.inst         2486                       # number of demand (read+write) accesses (Count)
board.cache_hierarchy.l2caches.demandAccesses::processor.switch.core.data       852970                       # number of demand (read+write) accesses (Count)
board.cache_hierarchy.l2caches.demandAccesses::total      2080867                       # number of demand (read+write) accesses (Count)
board.cache_hierarchy.l2caches.overallAccesses::cache_hierarchy.l1dcaches.prefetcher      1225411                       # number of overall (read+write) accesses (Count)
board.cache_hierarchy.l2caches.overallAccesses::processor.switch.core.inst         2486                       # number of overall (read+write) accesses (Count)
board.cache_hierarchy.l2caches.overallAccesses::processor.switch.core.data       852970                       # number of overall (read+write) accesses (Count)
board.cache_hierarchy.l2caches.overallAccesses::total      2080867                       # number of overall (read+write) accesses (Count)
board.cache_hierarchy.l2caches.demandMissRate::cache_hierarchy.l1dcaches.prefetcher     0.893424                       # miss rate for demand accesses (Ratio)
board.cache_hierarchy.l2caches.demandMissRate::processor.switch.core.inst     0.995173                       # miss rate for demand accesses (Ratio)
board.cache_hierarchy.l2caches.demandMissRate::processor.switch.core.data     0.505906                       # miss rate for demand accesses (Ratio)
board.cache_hierarchy.l2caches.demandMissRate::total     0.734698                       # miss rate for demand accesses (Ratio)
board.cache_hierarchy.l2caches.overallMissRate::cache_hierarchy.l1dcaches.prefetcher     0.893424                       # miss rate for overall accesses (Ratio)
board.cache_hierarchy.l2caches.overallMissRate::processor.switch.core.inst     0.995173                       # miss rate for overall accesses (Ratio)
board.cache_hierarchy.l2caches.overallMissRate::processor.switch.core.data     0.505906                       # miss rate for overall accesses (Ratio)
board.cache_hierarchy.l2caches.overallMissRate::total     0.734698                       # miss rate for overall accesses (Ratio)
board.cache_hierarchy.l2caches.demandAvgMissLatency::cache_hierarchy.l1dcaches.prefetcher 29931.682722                       # average overall miss latency in ticks ((Tick/Count))
board.cache_hierarchy.l2caches.demandAvgMissLatency::processor.switch.core.inst 46912.388844                       # average overall miss latency in ticks ((Tick/Count))
board.cache_hierarchy.l2caches.demandAvgMissLatency::processor.switch.core.data 31093.510079                       # average overall miss latency in ticks ((Tick/Count))
board.cache_hierarchy.l2caches.demandAvgMissLatency::total 30287.100468                       # average overall miss latency in ticks ((Tick/Count))
board.cache_hierarchy.l2caches.overallAvgMissLatency::cache_hierarchy.l1dcaches.prefetcher 29931.682722                       # average overall miss latency ((Tick/Count))
board.cache_hierarchy.l2caches.overallAvgMissLatency::processor.switch.core.inst 46912.388844                       # average overall miss latency ((Tick/Count))
board.cache_hierarchy.l2caches.overallAvgMissLatency::processor.switch.core.data 31093.510079                       # average overall miss latency ((Tick/Count))
board.cache_hierarchy.l2caches.overallAvgMissLatency::total 30287.100468                       # average overall miss latency ((Tick/Count))
board.cache_hierarchy.l2caches.blockedCycles::no_mshrs            0                       # number of cycles access was blocked (Cycle)
board.cache_hierarchy.l2caches.blockedCycles::no_wbuffers            0                       # number of cycles access was blocked (Cycle)
board.cache_hierarchy.l2caches.blockedCycles::no_targets            0                       # number of cycles access was blocked (Cycle)
board.cache_hierarchy.l2caches.blockedCauses::no_mshrs            0                       # number of times access was blocked (Count)
board.cache_hierarchy.l2caches.blockedCauses::no_wbuffers            0                       # number of times access was blocked (Count)
board.cache_hierarchy.l2caches.blockedCauses::no_targets            0                       # number of times access was blocked (Count)
board.cache_hierarchy.l2caches.avgBlocked::no_mshrs          nan                       # average number of cycles each access was blocked ((Cycle/Count))
board.cache_hierarchy.l2caches.avgBlocked::no_wbuffers          nan                       # average number of cycles each access was blocked ((Cycle/Count))
board.cache_hierarchy.l2caches.avgBlocked::no_targets          nan                       # average number of cycles each access was blocked ((Cycle/Count))
board.cache_hierarchy.l2caches.writebacks::writebacks      1099341                       # number of writebacks (Count)
board.cache_hierarchy.l2caches.writebacks::total      1099341                       # number of writebacks (Count)
board.cache_hierarchy.l2caches.demandMshrMisses::cache_hierarchy.l1dcaches.prefetcher      1094811                       # number of demand (read+write) MSHR misses (Count)
board.cache_hierarchy.l2caches.demandMshrMisses::processor.switch.core.inst         2474                       # number of demand (read+write) MSHR misses (Count)
board.cache_hierarchy.l2caches.demandMshrMisses::processor.switch.core.data       431523                       # number of demand (read+write) MSHR misses (Count)
board.cache_hierarchy.l2caches.demandMshrMisses::total      1528808                       # number of demand (read+write) MSHR misses (Count)
board.cache_hierarchy.l2caches.overallMshrMisses::cache_hierarchy.l1dcaches.prefetcher      1094811                       # number of overall MSHR misses (Count)
board.cache_hierarchy.l2caches.overallMshrMisses::processor.switch.core.inst         2474                       # number of overall MSHR misses (Count)
board.cache_hierarchy.l2caches.overallMshrMisses::processor.switch.core.data       431523                       # number of overall MSHR misses (Count)
board.cache_hierarchy.l2caches.overallMshrMisses::total      1528808                       # number of overall MSHR misses (Count)
board.cache_hierarchy.l2caches.demandMshrMissLatency::cache_hierarchy.l1dcaches.prefetcher  32495832743                       # number of demand (read+write) MSHR miss ticks (Tick)
board.cache_hierarchy.l2caches.demandMshrMissLatency::processor.switch.core.inst    115442750                       # number of demand (read+write) MSHR miss ticks (Tick)
board.cache_hierarchy.l2caches.demandMshrMissLatency::processor.switch.core.data  13309684000                       # number of demand (read+write) MSHR miss ticks (Tick)
board.cache_hierarchy.l2caches.demandMshrMissLatency::total  45920959493                       # number of demand (read+write) MSHR miss ticks (Tick)
board.cache_hierarchy.l2caches.overallMshrMissLatency::cache_hierarchy.l1dcaches.prefetcher  32495832743                       # number of overall MSHR miss ticks (Tick)
board.cache_hierarchy.l2caches.overallMshrMissLatency::processor.switch.core.inst    115442750                       # number of overall MSHR miss ticks (Tick)
board.cache_hierarchy.l2caches.overallMshrMissLatency::processor.switch.core.data  13309684000                       # number of overall MSHR miss ticks (Tick)
board.cache_hierarchy.l2caches.overallMshrMissLatency::total  45920959493                       # number of overall MSHR miss ticks (Tick)
board.cache_hierarchy.l2caches.demandMshrMissRate::cache_hierarchy.l1dcaches.prefetcher     0.893424                       # mshr miss ratio for demand accesses (Ratio)
board.cache_hierarchy.l2caches.demandMshrMissRate::processor.switch.core.inst     0.995173                       # mshr miss ratio for demand accesses (Ratio)
board.cache_hierarchy.l2caches.demandMshrMissRate::processor.switch.core.data     0.505906                       # mshr miss ratio for demand accesses (Ratio)
board.cache_hierarchy.l2caches.demandMshrMissRate::total     0.734698                       # mshr miss ratio for demand accesses (Ratio)
board.cache_hierarchy.l2caches.overallMshrMissRate::cache_hierarchy.l1dcaches.prefetcher     0.893424                       # mshr miss ratio for overall accesses (Ratio)
board.cache_hierarchy.l2caches.overallMshrMissRate::processor.switch.core.inst     0.995173                       # mshr miss ratio for overall accesses (Ratio)
board.cache_hierarchy.l2caches.overallMshrMissRate::processor.switch.core.data     0.505906                       # mshr miss ratio for overall accesses (Ratio)
board.cache_hierarchy.l2caches.overallMshrMissRate::total     0.734698                       # mshr miss ratio for overall accesses (Ratio)
board.cache_hierarchy.l2caches.demandAvgMshrMissLatency::cache_hierarchy.l1dcaches.prefetcher 29681.682722                       # average overall mshr miss latency ((Tick/Count))
board.cache_hierarchy.l2caches.demandAvgMshrMissLatency::processor.switch.core.inst 46662.388844                       # average overall mshr miss latency ((Tick/Count))
board.cache_hierarchy.l2caches.demandAvgMshrMissLatency::processor.switch.core.data 30843.510079                       # average overall mshr miss latency ((Tick/Count))
board.cache_hierarchy.l2caches.demandAvgMshrMissLatency::total 30037.100468                       # average overall mshr miss latency ((Tick/Count))
board.cache_hierarchy.l2caches.overallAvgMshrMissLatency::cache_hierarchy.l1dcaches.prefetcher 29681.682722                       # average overall mshr miss latency ((Tick/Count))
board.cache_hierarchy.l2caches.overallAvgMshrMissLatency::processor.switch.core.inst 46662.388844                       # average overall mshr miss latency ((Tick/Count))
board.cache_hierarchy.l2caches.overallAvgMshrMissLatency::processor.switch.core.data 30843.510079                       # average overall mshr miss latency ((Tick/Count))
board.cache_hierarchy.l2caches.overallAvgMshrMissLatency::total 30037.100468                       # average overall mshr miss latency ((Tick/Count))
board.cache_hierarchy.l2caches.replacements      1528849                       # number of replacements (Count)
board.cache_hierarchy.l2caches.CleanEvict.mshrMisses::writebacks         2443                       # number of CleanEvict MSHR misses (Count)
board.cache_hierarchy.l2caches.CleanEvict.mshrMisses::total         2443                       # number of CleanEvict MSHR misses (Count)
board.cache_hierarchy.l2caches.CleanEvict.mshrMissRate::writebacks          inf                       # mshr miss rate for CleanEvict accesses (Ratio)
board.cache_hierarchy.l2caches.CleanEvict.mshrMissRate::total          inf                       # mshr miss rate for CleanEvict accesses (Ratio)
board.cache_hierarchy.l2caches.ReadExReq.hits::processor.switch.core.data       123935                       # number of ReadExReq hits (Count)
board.cache_hierarchy.l2caches.ReadExReq.hits::total       123935                       # number of ReadExReq hits (Count)
board.cache_hierarchy.l2caches.ReadExReq.misses::processor.switch.core.data        96647                       # number of ReadExReq misses (Count)
board.cache_hierarchy.l2caches.ReadExReq.misses::total        96647                       # number of ReadExReq misses (Count)
board.cache_hierarchy.l2caches.ReadExReq.missLatency::processor.switch.core.data   3193594000                       # number of ReadExReq miss ticks (Tick)
board.cache_hierarchy.l2caches.ReadExReq.missLatency::total   3193594000                       # number of ReadExReq miss ticks (Tick)
board.cache_hierarchy.l2caches.ReadExReq.accesses::processor.switch.core.data       220582                       # number of ReadExReq accesses(hits+misses) (Count)
board.cache_hierarchy.l2caches.ReadExReq.accesses::total       220582                       # number of ReadExReq accesses(hits+misses) (Count)
board.cache_hierarchy.l2caches.ReadExReq.missRate::processor.switch.core.data     0.438145                       # miss rate for ReadExReq accesses (Ratio)
board.cache_hierarchy.l2caches.ReadExReq.missRate::total     0.438145                       # miss rate for ReadExReq accesses (Ratio)
board.cache_hierarchy.l2caches.ReadExReq.avgMissLatency::processor.switch.core.data 33043.902035                       # average ReadExReq miss latency ((Tick/Count))
board.cache_hierarchy.l2caches.ReadExReq.avgMissLatency::total 33043.902035                       # average ReadExReq miss latency ((Tick/Count))
board.cache_hierarchy.l2caches.ReadExReq.mshrMisses::processor.switch.core.data        96647                       # number of ReadExReq MSHR misses (Count)
board.cache_hierarchy.l2caches.ReadExReq.mshrMisses::total        96647                       # number of ReadExReq MSHR misses (Count)
board.cache_hierarchy.l2caches.ReadExReq.mshrMissLatency::processor.switch.core.data   3169432250                       # number of ReadExReq MSHR miss ticks (Tick)
board.cache_hierarchy.l2caches.ReadExReq.mshrMissLatency::total   3169432250                       # number of ReadExReq MSHR miss ticks (Tick)
board.cache_hierarchy.l2caches.ReadExReq.mshrMissRate::processor.switch.core.data     0.438145                       # mshr miss rate for ReadExReq accesses (Ratio)
board.cache_hierarchy.l2caches.ReadExReq.mshrMissRate::total     0.438145                       # mshr miss rate for ReadExReq accesses (Ratio)
board.cache_hierarchy.l2caches.ReadExReq.avgMshrMissLatency::processor.switch.core.data 32793.902035                       # average ReadExReq mshr miss latency ((Tick/Count))
board.cache_hierarchy.l2caches.ReadExReq.avgMshrMissLatency::total 32793.902035                       # average ReadExReq mshr miss latency ((Tick/Count))
board.cache_hierarchy.l2caches.ReadSharedReq.hits::cache_hierarchy.l1dcaches.prefetcher       130600                       # number of ReadSharedReq hits (Count)
board.cache_hierarchy.l2caches.ReadSharedReq.hits::processor.switch.core.inst           12                       # number of ReadSharedReq hits (Count)
board.cache_hierarchy.l2caches.ReadSharedReq.hits::processor.switch.core.data       297512                       # number of ReadSharedReq hits (Count)
board.cache_hierarchy.l2caches.ReadSharedReq.hits::total       428124                       # number of ReadSharedReq hits (Count)
board.cache_hierarchy.l2caches.ReadSharedReq.misses::cache_hierarchy.l1dcaches.prefetcher      1094811                       # number of ReadSharedReq misses (Count)
board.cache_hierarchy.l2caches.ReadSharedReq.misses::processor.switch.core.inst         2474                       # number of ReadSharedReq misses (Count)
board.cache_hierarchy.l2caches.ReadSharedReq.misses::processor.switch.core.data       334876                       # number of ReadSharedReq misses (Count)
board.cache_hierarchy.l2caches.ReadSharedReq.misses::total      1432161                       # number of ReadSharedReq misses (Count)
board.cache_hierarchy.l2caches.ReadSharedReq.missLatency::cache_hierarchy.l1dcaches.prefetcher  32769535493                       # number of ReadSharedReq miss ticks (Tick)
board.cache_hierarchy.l2caches.ReadSharedReq.missLatency::processor.switch.core.inst    116061250                       # number of ReadSharedReq miss ticks (Tick)
board.cache_hierarchy.l2caches.ReadSharedReq.missLatency::processor.switch.core.data  10223970750                       # number of ReadSharedReq miss ticks (Tick)
board.cache_hierarchy.l2caches.ReadSharedReq.missLatency::total  43109567493                       # number of ReadSharedReq miss ticks (Tick)
board.cache_hierarchy.l2caches.ReadSharedReq.accesses::cache_hierarchy.l1dcaches.prefetcher      1225411                       # number of ReadSharedReq accesses(hits+misses) (Count)
board.cache_hierarchy.l2caches.ReadSharedReq.accesses::processor.switch.core.inst         2486                       # number of ReadSharedReq accesses(hits+misses) (Count)
board.cache_hierarchy.l2caches.ReadSharedReq.accesses::processor.switch.core.data       632388                       # number of ReadSharedReq accesses(hits+misses) (Count)
board.cache_hierarchy.l2caches.ReadSharedReq.accesses::total      1860285                       # number of ReadSharedReq accesses(hits+misses) (Count)
board.cache_hierarchy.l2caches.ReadSharedReq.missRate::cache_hierarchy.l1dcaches.prefetcher     0.893424                       # miss rate for ReadSharedReq accesses (Ratio)
board.cache_hierarchy.l2caches.ReadSharedReq.missRate::processor.switch.core.inst     0.995173                       # miss rate for ReadSharedReq accesses (Ratio)
board.cache_hierarchy.l2caches.ReadSharedReq.missRate::processor.switch.core.data     0.529542                       # miss rate for ReadSharedReq accesses (Ratio)
board.cache_hierarchy.l2caches.ReadSharedReq.missRate::total     0.769861                       # miss rate for ReadSharedReq accesses (Ratio)
board.cache_hierarchy.l2caches.ReadSharedReq.avgMissLatency::cache_hierarchy.l1dcaches.prefetcher 29931.682722                       # average ReadSharedReq miss latency ((Tick/Count))
board.cache_hierarchy.l2caches.ReadSharedReq.avgMissLatency::processor.switch.core.inst 46912.388844                       # average ReadSharedReq miss latency ((Tick/Count))
board.cache_hierarchy.l2caches.ReadSharedReq.avgMissLatency::processor.switch.core.data 30530.616557                       # average ReadSharedReq miss latency ((Tick/Count))
board.cache_hierarchy.l2caches.ReadSharedReq.avgMissLatency::total 30101.062306                       # average ReadSharedReq miss latency ((Tick/Count))
board.cache_hierarchy.l2caches.ReadSharedReq.mshrMisses::cache_hierarchy.l1dcaches.prefetcher      1094811                       # number of ReadSharedReq MSHR misses (Count)
board.cache_hierarchy.l2caches.ReadSharedReq.mshrMisses::processor.switch.core.inst         2474                       # number of ReadSharedReq MSHR misses (Count)
board.cache_hierarchy.l2caches.ReadSharedReq.mshrMisses::processor.switch.core.data       334876                       # number of ReadSharedReq MSHR misses (Count)
board.cache_hierarchy.l2caches.ReadSharedReq.mshrMisses::total      1432161                       # number of ReadSharedReq MSHR misses (Count)
board.cache_hierarchy.l2caches.ReadSharedReq.mshrMissLatency::cache_hierarchy.l1dcaches.prefetcher  32495832743                       # number of ReadSharedReq MSHR miss ticks (Tick)
board.cache_hierarchy.l2caches.ReadSharedReq.mshrMissLatency::processor.switch.core.inst    115442750                       # number of ReadSharedReq MSHR miss ticks (Tick)
board.cache_hierarchy.l2caches.ReadSharedReq.mshrMissLatency::processor.switch.core.data  10140251750                       # number of ReadSharedReq MSHR miss ticks (Tick)
board.cache_hierarchy.l2caches.ReadSharedReq.mshrMissLatency::total  42751527243                       # number of ReadSharedReq MSHR miss ticks (Tick)
board.cache_hierarchy.l2caches.ReadSharedReq.mshrMissRate::cache_hierarchy.l1dcaches.prefetcher     0.893424                       # mshr miss rate for ReadSharedReq accesses (Ratio)
board.cache_hierarchy.l2caches.ReadSharedReq.mshrMissRate::processor.switch.core.inst     0.995173                       # mshr miss rate for ReadSharedReq accesses (Ratio)
board.cache_hierarchy.l2caches.ReadSharedReq.mshrMissRate::processor.switch.core.data     0.529542                       # mshr miss rate for ReadSharedReq accesses (Ratio)
board.cache_hierarchy.l2caches.ReadSharedReq.mshrMissRate::total     0.769861                       # mshr miss rate for ReadSharedReq accesses (Ratio)
board.cache_hierarchy.l2caches.ReadSharedReq.avgMshrMissLatency::cache_hierarchy.l1dcaches.prefetcher 29681.682722                       # average ReadSharedReq mshr miss latency ((Tick/Count))
board.cache_hierarchy.l2caches.ReadSharedReq.avgMshrMissLatency::processor.switch.core.inst 46662.388844                       # average ReadSharedReq mshr miss latency ((Tick/Count))
board.cache_hierarchy.l2caches.ReadSharedReq.avgMshrMissLatency::processor.switch.core.data 30280.616557                       # average ReadSharedReq mshr miss latency ((Tick/Count))
board.cache_hierarchy.l2caches.ReadSharedReq.avgMshrMissLatency::total 29851.062306                       # average ReadSharedReq mshr miss latency ((Tick/Count))
board.cache_hierarchy.l2caches.UpgradeReq.hits::processor.switch.core.data       529118                       # number of UpgradeReq hits (Count)
board.cache_hierarchy.l2caches.UpgradeReq.hits::total       529118                       # number of UpgradeReq hits (Count)
board.cache_hierarchy.l2caches.UpgradeReq.misses::processor.switch.core.data            3                       # number of UpgradeReq misses (Count)
board.cache_hierarchy.l2caches.UpgradeReq.misses::total            3                       # number of UpgradeReq misses (Count)
board.cache_hierarchy.l2caches.UpgradeReq.missLatency::processor.switch.core.data        16750                       # number of UpgradeReq miss ticks (Tick)
board.cache_hierarchy.l2caches.UpgradeReq.missLatency::total        16750                       # number of UpgradeReq miss ticks (Tick)
board.cache_hierarchy.l2caches.UpgradeReq.accesses::processor.switch.core.data       529121                       # number of UpgradeReq accesses(hits+misses) (Count)
board.cache_hierarchy.l2caches.UpgradeReq.accesses::total       529121                       # number of UpgradeReq accesses(hits+misses) (Count)
board.cache_hierarchy.l2caches.UpgradeReq.missRate::processor.switch.core.data     0.000006                       # miss rate for UpgradeReq accesses (Ratio)
board.cache_hierarchy.l2caches.UpgradeReq.missRate::total     0.000006                       # miss rate for UpgradeReq accesses (Ratio)
board.cache_hierarchy.l2caches.UpgradeReq.avgMissLatency::processor.switch.core.data  5583.333333                       # average UpgradeReq miss latency ((Tick/Count))
board.cache_hierarchy.l2caches.UpgradeReq.avgMissLatency::total  5583.333333                       # average UpgradeReq miss latency ((Tick/Count))
board.cache_hierarchy.l2caches.UpgradeReq.mshrMisses::processor.switch.core.data            3                       # number of UpgradeReq MSHR misses (Count)
board.cache_hierarchy.l2caches.UpgradeReq.mshrMisses::total            3                       # number of UpgradeReq MSHR misses (Count)
board.cache_hierarchy.l2caches.UpgradeReq.mshrMissLatency::processor.switch.core.data        47500                       # number of UpgradeReq MSHR miss ticks (Tick)
board.cache_hierarchy.l2caches.UpgradeReq.mshrMissLatency::total        47500                       # number of UpgradeReq MSHR miss ticks (Tick)
board.cache_hierarchy.l2caches.UpgradeReq.mshrMissRate::processor.switch.core.data     0.000006                       # mshr miss rate for UpgradeReq accesses (Ratio)
board.cache_hierarchy.l2caches.UpgradeReq.mshrMissRate::total     0.000006                       # mshr miss rate for UpgradeReq accesses (Ratio)
board.cache_hierarchy.l2caches.UpgradeReq.avgMshrMissLatency::processor.switch.core.data 15833.333333                       # average UpgradeReq mshr miss latency ((Tick/Count))
board.cache_hierarchy.l2caches.UpgradeReq.avgMshrMissLatency::total 15833.333333                       # average UpgradeReq mshr miss latency ((Tick/Count))
board.cache_hierarchy.l2caches.WritebackDirty.hits::writebacks      1340899                       # number of WritebackDirty hits (Count)
board.cache_hierarchy.l2caches.WritebackDirty.hits::total      1340899                       # number of WritebackDirty hits (Count)
board.cache_hierarchy.l2caches.WritebackDirty.accesses::writebacks      1340899                       # number of WritebackDirty accesses(hits+misses) (Count)
board.cache_hierarchy.l2caches.WritebackDirty.accesses::total      1340899                       # number of WritebackDirty accesses(hits+misses) (Count)
board.cache_hierarchy.l2caches.power_state.pwrStateResidencyTicks::UNDEFINED  43224097000                       # Cumulative time (in ticks) in various power states (Tick)
board.cache_hierarchy.l2caches.tags.tagsInUse        16384                       # Average ticks per tags in use ((Tick/Count))
board.cache_hierarchy.l2caches.tags.totalRefs      4690275                       # Total number of references to valid blocks. (Count)
board.cache_hierarchy.l2caches.tags.sampledRefs      1528849                       # Sample count of references to valid blocks. (Count)
board.cache_hierarchy.l2caches.tags.avgRefs     3.067847                       # Average number of references to valid blocks. ((Count/Count))
board.cache_hierarchy.l2caches.tags.warmupTick            0                       # The tick when the warmup percentage was hit. (Tick)
board.cache_hierarchy.l2caches.tags.occupancies::writebacks     0.590353                       # Average occupied blocks per tick, per requestor ((Count/Tick))
board.cache_hierarchy.l2caches.tags.occupancies::cache_hierarchy.l1dcaches.prefetcher 11488.641767                       # Average occupied blocks per tick, per requestor ((Count/Tick))
board.cache_hierarchy.l2caches.tags.occupancies::processor.switch.core.inst    30.953165                       # Average occupied blocks per tick, per requestor ((Count/Tick))
board.cache_hierarchy.l2caches.tags.occupancies::processor.switch.core.data  4863.814715                       # Average occupied blocks per tick, per requestor ((Count/Tick))
board.cache_hierarchy.l2caches.tags.avgOccs::writebacks     0.000036                       # Average percentage of cache occupancy ((Ratio/Tick))
board.cache_hierarchy.l2caches.tags.avgOccs::cache_hierarchy.l1dcaches.prefetcher     0.701211                       # Average percentage of cache occupancy ((Ratio/Tick))
board.cache_hierarchy.l2caches.tags.avgOccs::processor.switch.core.inst     0.001889                       # Average percentage of cache occupancy ((Ratio/Tick))
board.cache_hierarchy.l2caches.tags.avgOccs::processor.switch.core.data     0.296864                       # Average percentage of cache occupancy ((Ratio/Tick))
board.cache_hierarchy.l2caches.tags.avgOccs::total            1                       # Average percentage of cache occupancy ((Ratio/Tick))
board.cache_hierarchy.l2caches.tags.occupanciesTaskId::1022        15675                       # Occupied blocks per task id (Count)
board.cache_hierarchy.l2caches.tags.occupanciesTaskId::1024          709                       # Occupied blocks per task id (Count)
board.cache_hierarchy.l2caches.tags.ageTaskId_1022::0           76                       # Occupied blocks per task id, per block age (Count)
board.cache_hierarchy.l2caches.tags.ageTaskId_1022::1          880                       # Occupied blocks per task id, per block age (Count)
[...]
board.processor.switch.core.fetchStats0.numInsts     96409111                       # Number of instructions fetched (thread level) (Count)
board.processor.switch.core.fetchStats0.numOps            0                       # Number of ops (including micro ops) fetched (thread level) (Count)
board.processor.switch.core.fetchStats0.fetchRate     0.536673                       # Number of inst fetches per cycle ((Count/Cycle))
board.processor.switch.core.fetchStats0.numBranches     19636436                       # Number of branches fetched (Count)
board.processor.switch.core.fetchStats0.branchRate     0.109309                       # Number of branch fetches per cycle (Ratio)
board.processor.switch.core.fetchStats0.icacheStallCycles     87459285                       # ICache total stall cycles (Cycle)
board.processor.switch.core.fetchStats0.numFetchSuspends            0                       # Number of times Execute suspended instruction fetching (Count)
board.processor.switch.core.ftq.inserts             0                       # The number of FTQ insertions (Count)
board.processor.switch.core.ftq.removals            0                       # The number of FTQ removals. Not including squashes (Count)
board.processor.switch.core.ftq.squashes            0                       # The number of FTQ squashes (Count)
board.processor.switch.core.ftq.locks               0                       # The number of times the FTQ got locked. (Count)
board.processor.switch.core.ftq.occupancy::samples            0                       # Distribution of the FTQ occupation. (Count)
board.processor.switch.core.ftq.occupancy::mean          nan                       # Distribution of the FTQ occupation. (Count)
board.processor.switch.core.ftq.occupancy::stdev          nan                       # Distribution of the FTQ occupation. (Count)
board.processor.switch.core.ftq.occupancy::underflows            0                       # Distribution of the FTQ occupation. (Count)
board.processor.switch.core.ftq.occupancy::0-3            0                       # Distribution of the FTQ occupation. (Count)
board.processor.switch.core.ftq.occupancy::4-7            0                       # Distribution of the FTQ occupation. (Count)
board.processor.switch.core.ftq.occupancy::8            0                       # Distribution of the FTQ occupation. (Count)
board.processor.switch.core.ftq.occupancy::overflows            0                       # Distribution of the FTQ occupation. (Count)
board.processor.switch.core.ftq.occupancy::min_value            0                       # Distribution of the FTQ occupation. (Count)
board.processor.switch.core.ftq.occupancy::max_value            0                       # Distribution of the FTQ occupation. (Count)
board.processor.switch.core.ftq.occupancy::total            0                       # Distribution of the FTQ occupation. (Count)
board.processor.switch.core.iew.dispatchStatus::running    160977737     89.64%     89.64% # Number of cycles dispatch is running (Cycle)
board.processor.switch.core.iew.dispatchStatus::blocked     13238528      7.37%     97.01% # Number of cycles dispatch is blocked (Cycle)
board.processor.switch.core.iew.dispatchStatus::squashing      2278229      1.27%     98.28% # Number of cycles dispatch is squashing (Cycle)
board.processor.switch.core.iew.dispatchStatus::unblocking      3094101      1.72%    100.00% # Number of cycles dispatch is unblocking (Cycle)
board.processor.switch.core.iew.dispatchedInsts    133820026                       # Number of instructions dispatched to IQ (Count)
board.processor.switch.core.iew.dispSquashedInsts     13057690                       # Number of squashed instructions skipped by dispatch (Count)
board.processor.switch.core.iew.dispLoadInsts     18165839                       # Number of dispatched load instructions (Count)
board.processor.switch.core.iew.dispStoreInsts      4915362                       # Number of dispatched store instructions (Count)
board.processor.switch.core.iew.dispNonSpecInsts            0                       # Number of dispatched non-speculative instructions (Count)
board.processor.switch.core.iew.iqFullEvents        47927                       # Number of times the IQ has become full, causing a stall (Count)
board.processor.switch.core.iew.lsqFullEvents      2970906                       # Number of times the LSQ has become full, causing a stall (Count)
board.processor.switch.core.iew.memOrderViolationEvents          343                       # Number of memory order violations (Count)
board.processor.switch.core.iew.predictedTakenIncorrect       527676                       # Number of branches that were predicted taken incorrectly (Count)
board.processor.switch.core.iew.predictedNotTakenIncorrect      2202555                       # Number of branches that were predicted not taken incorrectly (Count)
board.processor.switch.core.iew.branchMispredicts      2730231                       # Number of branch mispredicts detected at execute (Count)
board.processor.switch.core.iew.instsToCommit    126086329                       # Cumulative count of insts sent to commit (Count)
board.processor.switch.core.iew.writebackCount    125311232                       # Cumulative count of insts written-back (Count)
board.processor.switch.core.iew.producerInst     82236649                       # Number of instructions producing a value (Count)
board.processor.switch.core.iew.consumerInst    114402123                       # Number of instructions consuming a value (Count)
board.processor.switch.core.iew.wbRate       0.697560                       # Insts written-back per cycle ((Count/Cycle))
board.processor.switch.core.iew.wbFanout     0.718838                       # Average fanout of values written-back ((Count/Count))
board.processor.switch.core.lsq0.forwLoads       199044                       # Number of loads that had data forwarded from stores (Count)
board.processor.switch.core.lsq0.squashedLoads      6656790                       # Number of loads squashed (Count)
board.processor.switch.core.lsq0.ignoredResponses          133                       # Number of memory responses ignored because the instruction is squashed (Count)
board.processor.switch.core.lsq0.memOrderViolation          343                       # Number of memory ordering violations (Count)
board.processor.switch.core.lsq0.squashedStores      1571299                       # Number of stores squashed (Count)
board.processor.switch.core.lsq0.rescheduledLoads       145074                       # Number of loads that were rescheduled (Count)
board.processor.switch.core.lsq0.blockedByCache          786                       # Number of times an access to memory failed due to the cache being blocked (Count)
board.processor.switch.core.lsq0.loadToUse::samples     11509036                       # Distribution of cycle latency between the first time a load is issued and its completion (Cycle)
board.processor.switch.core.lsq0.loadToUse::mean    20.683141                       # Distribution of cycle latency between the first time a load is issued and its completion (Cycle)
board.processor.switch.core.lsq0.loadToUse::stdev    70.387621                       # Distribution of cycle latency between the first time a load is issued and its completion (Cycle)
board.processor.switch.core.lsq0.loadToUse::0-9     10094178     87.71%     87.71% # Distribution of cycle latency between the first time a load is issued and its completion (Cycle)
board.processor.switch.core.lsq0.loadToUse::10-19        42730      0.37%     88.08% # Distribution of cycle latency between the first time a load is issued and its completion (Cycle)
board.processor.switch.core.lsq0.loadToUse::20-29       350797      3.05%     91.13% # Distribution of cycle latency between the first time a load is issued and its completion (Cycle)
board.processor.switch.core.lsq0.loadToUse::30-39        23596      0.21%     91.33% # Distribution of cycle latency between the first time a load is issued and its completion (Cycle)
board.processor.switch.core.lsq0.loadToUse::40-49        28981      0.25%     91.58% # Distribution of cycle latency between the first time a load is issued and its completion (Cycle)
board.processor.switch.core.lsq0.loadToUse::50-59        21250      0.18%     91.77% # Distribution of cycle latency between the first time a load is issued and its completion (Cycle)
board.processor.switch.core.lsq0.loadToUse::60-69        19175      0.17%     91.93% # Distribution of cycle latency between the first time a load is issued and its completion (Cycle)
board.processor.switch.core.lsq0.loadToUse::70-79       399418      3.47%     95.40% # Distribution of cycle latency between the first time a load is issued and its completion (Cycle)
board.processor.switch.core.lsq0.loadToUse::80-89         7556      0.07%     95.47% # Distribution of cycle latency between the first time a load is issued and its completion (Cycle)
board.processor.switch.core.lsq0.loadToUse::90-99         7954      0.07%     95.54% # Distribution of cycle latency between the first time a load is issued and its completion (Cycle)
board.processor.switch.core.lsq0.loadToUse::100-109         7450      0.06%     95.60% # Distribution of cycle latency between the first time a load is issued and its completion (Cycle)
board.processor.switch.core.lsq0.loadToUse::110-119         9675      0.08%     95.69% # Distribution of cycle latency between the first time a load is issued and its completion (Cycle)
board.processor.switch.core.lsq0.loadToUse::120-129         8254      0.07%     95.76% # Distribution of cycle latency between the first time a load is issued and its completion (Cycle)
board.processor.switch.core.lsq0.loadToUse::130-139         7175      0.06%     95.82% # Distribution of cycle latency between the first time a load is issued and its completion (Cycle)
board.processor.switch.core.lsq0.loadToUse::140-149         8619      0.07%     95.90% # Distribution of cycle latency between the first time a load is issued and its completion (Cycle)
board.processor.switch.core.lsq0.loadToUse::150-159         7202      0.06%     95.96% # Distribution of cycle latency between the first time a load is issued and its completion (Cycle)
board.processor.switch.core.lsq0.loadToUse::160-169         8133      0.07%     96.03% # Distribution of cycle latency between the first time a load is issued and its completion (Cycle)
board.processor.switch.core.lsq0.loadToUse::170-179        12114      0.11%     96.14% # Distribution of cycle latency between the first time a load is issued and its completion (Cycle)
board.processor.switch.core.lsq0.loadToUse::180-189        10210      0.09%     96.22% # Distribution of cycle latency between the first time a load is issued and its completion (Cycle)
board.processor.switch.core.lsq0.loadToUse::190-199         9757      0.08%     96.31% # Distribution of cycle latency between the first time a load is issued and its completion (Cycle)
board.processor.switch.core.lsq0.loadToUse::200-209        10983      0.10%     96.40% # Distribution of cycle latency between the first time a load is issued and its completion (Cycle)
board.processor.switch.core.lsq0.loadToUse::210-219        14107      0.12%     96.53% # Distribution of cycle latency between the first time a load is issued and its completion (Cycle)
board.processor.switch.core.lsq0.loadToUse::220-229        28834      0.25%     96.78% # Distribution of cycle latency between the first time a load is issued and its completion (Cycle)
board.processor.switch.core.lsq0.loadToUse::230-239       126042      1.10%     97.87% # Distribution of cycle latency between the first time a load is issued and its completion (Cycle)
board.processor.switch.core.lsq0.loadToUse::240-249        18251      0.16%     98.03% # Distribution of cycle latency between the first time a load is issued and its completion (Cycle)
board.processor.switch.core.lsq0.loadToUse::250-259        31610      0.27%     98.31% # Distribution of cycle latency between the first time a load is issued and its completion (Cycle)
board.processor.switch.core.lsq0.loadToUse::260-269         6857      0.06%     98.37% # Distribution of cycle latency between the first time a load is issued and its completion (Cycle)
board.processor.switch.core.lsq0.loadToUse::270-279         7317      0.06%     98.43% # Distribution of cycle latency between the first time a load is issued and its completion (Cycle)
board.processor.switch.core.lsq0.loadToUse::280-289        52362      0.45%     98.88% # Distribution of cycle latency between the first time a load is issued and its completion (Cycle)
board.processor.switch.core.lsq0.loadToUse::290-299         7258      0.06%     98.95% # Distribution of cycle latency between the first time a load is issued and its completion (Cycle)
board.processor.switch.core.lsq0.loadToUse::overflows       121191      1.05%    100.00% # Distribution of cycle latency between the first time a load is issued and its completion (Cycle)
board.processor.switch.core.lsq0.loadToUse::min_value            2                       # Distribution of cycle latency between the first time a load is issued and its completion (Cycle)
board.processor.switch.core.lsq0.loadToUse::max_value         2405                       # Distribution of cycle latency between the first time a load is issued and its completion (Cycle)
board.processor.switch.core.lsq0.loadToUse::total     11509036                       # Distribution of cycle latency between the first time a load is issued and its completion (Cycle)
board.processor.switch.core.lsq0.addedLoadsAndStores     23081201                       # Number of loads and stores written to the Load Store Queue (Count)
board.processor.switch.core.lsq0.lqAvgOccupancy         0.11                       # Average LQ Occupancy (UsedSlots/TotalSlots) (Ratio)
board.processor.switch.core.lsq0.sqAvgOccupancy         0.11                       # Average SQ Occupancy (UsedSlots/TotalSlots) (Ratio)
board.processor.switch.core.mmu.dtb.rdAccesses     17635703                       # TLB accesses on read requests (Count)
board.processor.switch.core.mmu.dtb.wrAccesses      4464393                       # TLB accesses on write requests (Count)
board.processor.switch.core.mmu.dtb.exAccesses            0                       # TLB accesses on execute (instr) requests (Count)
board.processor.switch.core.mmu.dtb.rdMisses       187694                       # TLB misses on read requests (Count)
board.processor.switch.core.mmu.dtb.wrMisses        18632                       # TLB misses on write requests (Count)
board.processor.switch.core.mmu.dtb.exMisses            0                       # TLB misses on execute (instr) requests (Count)
board.processor.switch.core.mmu.dtb.walker.power_state.pwrStateResidencyTicks::UNDEFINED  44910535750                       # Cumulative time (in ticks) in various power states (Tick)
board.processor.switch.core.mmu.itb.rdAccesses            0                       # TLB accesses on read requests (Count)
board.processor.switch.core.mmu.itb.wrAccesses            0                       # TLB accesses on write requests (Count)
board.processor.switch.core.mmu.itb.exAccesses     29102907                       # TLB accesses on execute (instr) requests (Count)
board.processor.switch.core.mmu.itb.rdMisses            0                       # TLB misses on read requests (Count)
board.processor.switch.core.mmu.itb.wrMisses            0                       # TLB misses on write requests (Count)
board.processor.switch.core.mmu.itb.exMisses            5                       # TLB misses on execute (instr) requests (Count)
board.processor.switch.core.mmu.itb.walker.power_state.pwrStateResidencyTicks::UNDEFINED  44910535750                       # Cumulative time (in ticks) in various power states (Tick)
board.processor.switch.core.power_state.pwrStateResidencyTicks::OFF  44910535750                       # Cumulative time (in ticks) in various power states (Tick)
board.processor.switch.core.rename.status::Running     46662527     25.98%     25.98% # Number of cycles rename is running (Cycle)
board.processor.switch.core.rename.status::Idle     79335295     44.18%     70.16% # Number of cycles rename is idle (Cycle)
board.processor.switch.core.rename.status::Squashing      2278229      1.27%     71.43% # Number of cycles rename is squashing (Cycle)
board.processor.switch.core.rename.status::Blocked     41379291     23.04%     94.47% # Number of cycles rename is blocking (Cycle)
board.processor.switch.core.rename.status::Unblocking      9933253      5.53%    100.00% # Number of cycles rename is unblocking (Cycle)
board.processor.switch.core.rename.renamedInsts    155652070                       # Number of instructions processed by rename (Count)
board.processor.switch.core.rename.ROBFullEvents      1065941                       # Number of times rename has blocked due to ROB full (Count)
board.processor.switch.core.rename.IQFullEvents       632857                       # Number of times rename has blocked due to IQ full (Count)
board.processor.switch.core.rename.SQFullEvents      7549909                       # Number of times rename has blocked due to SQ full (Count)
board.processor.switch.core.rename.fullRegistersEvents       310443                       # Number of times there has been no free registers (Count)
board.processor.switch.core.rename.renamedOperands    248715586                       # Number of destination operands rename has renamed (Count)
board.processor.switch.core.rename.lookups    482514646                       # Number of register rename lookups that rename has made (Count)
board.processor.switch.core.rename.intLookups    146437774                       # Number of integer rename lookups (Count)
board.processor.switch.core.rename.fpLookups     31796942                       # Number of floating rename lookups (Count)
board.processor.switch.core.rename.committedMaps    152719626                       # Number of HB maps that are committed (Count)
board.processor.switch.core.rename.undoneMaps     95995741                       # Number of HB maps that are undone due to squashing (Count)
board.processor.switch.core.rename.serializing            0                       # count of serializing insts renamed (Count)
board.processor.switch.core.rename.tempSerializing            0                       # count of temporary serializing insts renamed (Count)
board.processor.switch.core.rename.skidInsts      6014864                       # count of insts added to the skid buffer (Count)
board.processor.switch.core.rename.intReturned     53295406                       # count of registers freed and written back to integer free list (Count)
board.processor.switch.core.rename.fpReturned     16287051                       # count of registers freed and written back to floating point free list (Count)
board.processor.switch.core.rob.reads       317775352                       # The number of ROB reads (Count)
board.processor.switch.core.rob.writes      308638665                       # The number of ROB writes (Count)
board.processor.switch.core.thread_0.numInsts     50864104                       # Number of Instructions committed (Count)
board.processor.switch.core.thread_0.numOps     93413910                       # Number of Ops committed (Count)
board.processor.switch.core.thread_0.numMemRefs     14853096                       # Number of Memory References (Count)
board.workload.inst.arm                             0                       # number of arm instructions executed (Count)
board.workload.inst.quiesce                         0                       # number of quiesce instructions executed (Count)

---------- End Simulation Statistics   ----------
