
---------- Begin Simulation Statistics ----------
simSeconds                                   0.021639                       # Number of seconds simulated (Second)
simTicks                                  21639125500                       # Number of ticks simulated (Tick)
finalTick                                5494513758250                       # Number of ticks from beginning of simulation (restored from checkpoints and never reset) (Tick)
simFreq                                  1000000000000                       # The number of ticks per simulated second ((Tick/Second))
hostSeconds                                    327.24                       # Real time elapsed on the host (Second)
hostTickRate                                 66127159                       # The number of ticks simulated per host second (ticks/s) ((Tick/Second))
hostMemory                                    3409588                       # Number of bytes of host memory used (Byte)
simInsts                                     52425230                       # Number of instructions simulated (Count)
simOps                                      103057320                       # Number of ops (including micro ops) simulated (Count)
hostInstRate                                   160207                       # Simulator instruction rate (inst/s) ((Count/Second))
hostOpRate                                     314934                       # Simulator op (including micro ops) rate (op/s) ((Count/Second))
board.cache_hierarchy.dptw_caches.blockedCycles::no_mshrs            0                       # number of cycles access was blocked (Cycle)
board.cache_hierarchy.dptw_caches.blockedCycles::no_wbuffers            0                       # number of cycles access was blocked (Cycle)
board.cache_hierarchy.dptw_caches.blockedCycles::no_targets            0                       # number of cycles access was blocked (Cycle)
board.cache_hierarchy.dptw_caches.blockedCauses::no_mshrs            0                       # number of times access was blocked (Count)
board.cache_hierarchy.dptw_caches.blockedCauses::no_wbuffers            0                       # number of times access was blocked (Count)
board.cache_hierarchy.dptw_caches.blockedCauses::no_targets            0                       # number of times access was blocked (Count)
board.cache_hierarchy.dptw_caches.avgBlocked::no_mshrs          nan                       # average number of cycles each access was blocked ((Cycle/Count))
board.cache_hierarchy.dptw_caches.avgBlocked::no_wbuffers          nan                       # average number of cycles each access was blocked ((Cycle/Count))
board.cache_hierarchy.dptw_caches.avgBlocked::no_targets          nan                       # average number of cycles each access was blocked ((Cycle/Count))
board.cache_hierarchy.dptw_caches.replacements            0                       # number of replacements (Count)
board.cache_hierarchy.dptw_caches.power_state.pwrStateResidencyTicks::UNDEFINED  21639125500                       # Cumulative time (in ticks) in various power states (Tick)
board.cache_hierarchy.dptw_caches.tags.tagsInUse            0                       # Average ticks per tags in use ((Tick/Count))
board.cache_hierarchy.dptw_caches.tags.totalRefs            0                       # Total number of references to valid blocks. (Count)
board.cache_hierarchy.dptw_caches.tags.sampledRefs            0                       # Sample count of references to valid blocks. (Count)
board.cache_hierarchy.dptw_caches.tags.avgRefs          nan                       # Average number of references to valid blocks. ((Count/Count))
board.cache_hierarchy.dptw_caches.tags.warmupTick            0                       # The tick when the warmup percentage was hit. (Tick)
board.cache_hierarchy.dptw_caches.tags.tagAccesses            0                       # Number of tag accesses (Count)
board.cache_hierarchy.dptw_caches.tags.dataAccesses            0                       # Number of data accesses (Count)
board.cache_hierarchy.dptw_caches.tags.power_state.pwrStateResidencyTicks::UNDEFINED  21639125500                       # Cumulative time (in ticks) in various power states (Tick)
board.cache_hierarchy.iptw_caches.blockedCycles::no_mshrs            0                       # number of cycles access was blocked (Cycle)
board.cache_hierarchy.iptw_caches.blockedCycles::no_wbuffers            0                       # number of cycles access was blocked (Cycle)
board.cache_hierarchy.iptw_caches.blockedCycles::no_targets            0                       # number of cycles access was blocked (Cycle)
board.cache_hierarchy.iptw_caches.blockedCauses::no_mshrs            0                       # number of times access was blocked (Count)
board.cache_hierarchy.iptw_caches.blockedCauses::no_wbuffers            0                       # number of times access was blocked (Count)
board.cache_hierarchy.iptw_caches.blockedCauses::no_targets            0                       # number of times access was blocked (Count)
board.cache_hierarchy.iptw_caches.avgBlocked::no_mshrs          nan                       # average number of cycles each access was blocked ((Cycle/Count))
board.cache_hierarchy.iptw_caches.avgBlocked::no_wbuffers          nan                       # average number of cycles each access was blocked ((Cycle/Count))
board.cache_hierarchy.iptw_caches.avgBlocked::no_targets          nan                       # average number of cycles each access was blocked ((Cycle/Count))
board.cache_hierarchy.iptw_caches.replacements            0                       # number of replacements (Count)
board.cache_hierarchy.iptw_caches.power_state.pwrStateResidencyTicks::UNDEFINED  21639125500                       # Cumulative time (in ticks) in various power states (Tick)
board.cache_hierarchy.iptw_caches.tags.tagsInUse            0                       # Average ticks per tags in use ((Tick/Count))
board.cache_hierarchy.iptw_caches.tags.totalRefs            0                       # Total number of references to valid blocks. (Count)
board.cache_hierarchy.iptw_caches.tags.sampledRefs            0                       # Sample count of references to valid blocks. (Count)
board.cache_hierarchy.iptw_caches.tags.avgRefs          nan                       # Average number of references to valid blocks. ((Count/Count))
board.cache_hierarchy.iptw_caches.tags.warmupTick            0                       # The tick when the warmup percentage was hit. (Tick)
board.cache_hierarchy.iptw_caches.tags.tagAccesses            0                       # Number of tag accesses (Count)
board.cache_hierarchy.iptw_caches.tags.dataAccesses            0                       # Number of data accesses (Count)
board.cache_hierarchy.iptw_caches.tags.power_state.pwrStateResidencyTicks::UNDEFINED  21639125500                       # Cumulative time (in ticks) in various power states (Tick)
board.cache_hierarchy.l1dcaches.demandHits::processor.switch.core.data     23413588                       # number of demand (read+write) hits (Count)
board.cache_hierarchy.l1dcaches.demandHits::total     23413588                       # number of demand (read+write) hits (Count)
board.cache_hierarchy.l1dcaches.overallHits::processor.switch.core.data     23413588                       # number of overall hits (Count)
board.cache_hierarchy.l1dcaches.overallHits::total     23413588                       # number of overall hits (Count)
board.cache_hierarchy.l1dcaches.demandMisses::processor.switch.core.data           73                       # number of demand (read+write) misses (Count)
board.cache_hierarchy.l1dcaches.demandMisses::total           73                       # number of demand (read+write) misses (Count)
board.cache_hierarchy.l1dcaches.overallMisses::processor.switch.core.data           73                       # number of overall misses (Count)
board.cache_hierarchy.l1dcaches.overallMisses::total           73                       # number of overall misses (Count)
board.cache_hierarchy.l1dcaches.demandMissLatency::processor.switch.core.data      6022250                       # number of demand (read+write) miss ticks (Tick)
board.cache_hierarchy.l1dcaches.demandMissLatency::total      6022250                       # number of demand (read+write) miss ticks (Tick)
board.cache_hierarchy.l1dcaches.overallMissLatency::processor.switch.core.data      6022250                       # number of overall miss ticks (Tick)
board.cache_hierarchy.l1dcaches.overallMissLatency::total      6022250                       # number of overall miss ticks (Tick)
board.cache_hierarchy.l1dcaches.demandAccesses::processor.switch.core.data     23413661                       # number of demand (read+write) accesses (Count)
board.cache_hierarchy.l1dcaches.demandAccesses::total     23413661                       # number of demand (read+write) accesses (Count)
board.cache_hierarchy.l1dcaches.overallAccesses::processor.switch.core.data     23413661                       # number of overall (read+write) accesses (Count)
board.cache_hierarchy.l1dcaches.overallAccesses::total     23413661                       # number of overall (read+write) accesses (Count)
board.cache_hierarchy.l1dcaches.demandMissRate::processor.switch.core.data     0.000003                       # miss rate for demand accesses (Ratio)
board.cache_hierarchy.l1dcaches.demandMissRate::total     0.000003                       # miss rate for demand accesses (Ratio)
board.cache_hierarchy.l1dcaches.overallMissRate::processor.switch.core.data     0.000003                       # miss rate for overall accesses (Ratio)
board.cache_hierarchy.l1dcaches.overallMissRate::total     0.000003                       # miss rate for overall accesses (Ratio)
board.cache_hierarchy.l1dcaches.demandAvgMissLatency::processor.switch.core.data 82496.575342                       # average overall miss latency in ticks ((Tick/Count))
board.cache_hierarchy.l1dcaches.demandAvgMissLatency::total 82496.575342                       # average overall miss latency in ticks ((Tick/Count))
board.cache_hierarchy.l1dcaches.overallAvgMissLatency::processor.switch.core.data 82496.575342                       # average overall miss latency ((Tick/Count))
board.cache_hierarchy.l1dcaches.overallAvgMissLatency::total 82496.575342                       # average overall miss latency ((Tick/Count))
board.cache_hierarchy.l1dcaches.blockedCycles::no_mshrs            0                       # number of cycles access was blocked (Cycle)
board.cache_hierarchy.l1dcaches.blockedCycles::no_wbuffers            0                       # number of cycles access was blocked (Cycle)
board.cache_hierarchy.l1dcaches.blockedCycles::no_targets            0                       # number of cycles access was blocked (Cycle)
board.cache_hierarchy.l1dcaches.blockedCauses::no_mshrs            0                       # number of times access was blocked (Count)
board.cache_hierarchy.l1dcaches.blockedCauses::no_wbuffers            0                       # number of times access was blocked (Count)
board.cache_hierarchy.l1dcaches.blockedCauses::no_targets            0                       # number of times access was blocked (Count)
board.cache_hierarchy.l1dcaches.avgBlocked::no_mshrs          nan                       # average number of cycles each access was blocked ((Cycle/Count))
board.cache_hierarchy.l1dcaches.avgBlocked::no_wbuffers          nan                       # average number of cycles each access was blocked ((Cycle/Count))
board.cache_hierarchy.l1dcaches.avgBlocked::no_targets          nan                       # average number of cycles each access was blocked ((Cycle/Count))
board.cache_hierarchy.l1dcaches.writebacks::writebacks         4651                       # number of writebacks (Count)
board.cache_hierarchy.l1dcaches.writebacks::total         4651                       # number of writebacks (Count)
board.cache_hierarchy.l1dcaches.demandMshrMisses::processor.switch.core.data           73                       # number of demand (read+write) MSHR misses (Count)
board.cache_hierarchy.l1dcaches.demandMshrMisses::total           73                       # number of demand (read+write) MSHR misses (Count)
board.cache_hierarchy.l1dcaches.overallMshrMisses::cache_hierarchy.l1dcaches.prefetcher         4578                       # number of overall MSHR misses (Count)
board.cache_hierarchy.l1dcaches.overallMshrMisses::processor.switch.core.data           73                       # number of overall MSHR misses (Count)
board.cache_hierarchy.l1dcaches.overallMshrMisses::total         4651                       # number of overall MSHR misses (Count)
board.cache_hierarchy.l1dcaches.demandMshrMissLatency::processor.switch.core.data      6004000                       # number of demand (read+write) MSHR miss ticks (Tick)
board.cache_hierarchy.l1dcaches.demandMshrMissLatency::total      6004000                       # number of demand (read+write) MSHR miss ticks (Tick)
board.cache_hierarchy.l1dcaches.overallMshrMissLatency::cache_hierarchy.l1dcaches.prefetcher    362716136                       # number of overall MSHR miss ticks (Tick)
board.cache_hierarchy.l1dcaches.overallMshrMissLatency::processor.switch.core.data      6004000                       # number of overall MSHR miss ticks (Tick)
board.cache_hierarchy.l1dcaches.overallMshrMissLatency::total    368720136                       # number of overall MSHR miss ticks (Tick)
board.cache_hierarchy.l1dcaches.demandMshrMissRate::processor.switch.core.data     0.000003                       # mshr miss ratio for demand accesses (Ratio)
board.cache_hierarchy.l1dcaches.demandMshrMissRate::total     0.000003                       # mshr miss ratio for demand accesses (Ratio)
board.cache_hierarchy.l1dcaches.overallMshrMissRate::cache_hierarchy.l1dcaches.prefetcher          inf                       # mshr miss ratio for overall accesses (Ratio)
board.cache_hierarchy.l1dcaches.overallMshrMissRate::processor.switch.core.data     0.000003                       # mshr miss ratio for overall accesses (Ratio)
board.cache_hierarchy.l1dcaches.overallMshrMissRate::total     0.000199                       # mshr miss ratio for overall accesses (Ratio)
board.cache_hierarchy.l1dcaches.demandAvgMshrMissLatency::processor.switch.core.data 82246.575342                       # average overall mshr miss latency ((Tick/Count))
board.cache_hierarchy.l1dcaches.demandAvgMshrMissLatency::total 82246.575342                       # average overall mshr miss latency ((Tick/Count))
board.cache_hierarchy.l1dcaches.overallAvgMshrMissLatency::cache_hierarchy.l1dcaches.prefetcher 79230.261249                       # average overall mshr miss latency ((Tick/Count))
board.cache_hierarchy.l1dcaches.overallAvgMshrMissLatency::processor.switch.core.data 82246.575342                       # average overall mshr miss latency ((Tick/Count))
board.cache_hierarchy.l1dcaches.overallAvgMshrMissLatency::total 79277.603956                       # average overall mshr miss latency ((Tick/Count))
board.cache_hierarchy.l1dcaches.replacements         4651                       # number of replacements (Count)
board.cache_hierarchy.l1dcaches.HardPFReq.mshrMisses::cache_hierarchy.l1dcaches.prefetcher         4578                       # number of HardPFReq MSHR misses (Count)
board.cache_hierarchy.l1dcaches.HardPFReq.mshrMisses::total         4578                       # number of HardPFReq MSHR misses (Count)
board.cache_hierarchy.l1dcaches.HardPFReq.mshrMissLatency::cache_hierarchy.l1dcaches.prefetcher    362716136                       # number of HardPFReq MSHR miss ticks (Tick)
board.cache_hierarchy.l1dcaches.HardPFReq.mshrMissLatency::total    362716136                       # number of HardPFReq MSHR miss ticks (Tick)
board.cache_hierarchy.l1dcaches.HardPFReq.mshrMissRate::cache_hierarchy.l1dcaches.prefetcher          inf                       # mshr miss rate for HardPFReq accesses (Ratio)
board.cache_hierarchy.l1dcaches.HardPFReq.mshrMissRate::total          inf                       # mshr miss rate for HardPFReq accesses (Ratio)
board.cache_hierarchy.l1dcaches.HardPFReq.avgMshrMissLatency::cache_hierarchy.l1dcaches.prefetcher 79230.261249                       # average HardPFReq mshr miss latency ((Tick/Count))
board.cache_hierarchy.l1dcaches.HardPFReq.avgMshrMissLatency::total 79230.261249                       # average HardPFReq mshr miss latency ((Tick/Count))
board.cache_hierarchy.l1dcaches.ReadReq.hits::processor.switch.core.data     16939795                       # number of ReadReq hits (Count)
board.cache_hierarchy.l1dcaches.ReadReq.hits::total     16939795                       # number of ReadReq hits (Count)
board.cache_hierarchy.l1dcaches.ReadReq.accesses::processor.switch.core.data     16939795                       # number of ReadReq accesses(hits+misses) (Count)
board.cache_hierarchy.l1dcaches.ReadReq.accesses::total     16939795                       # number of ReadReq accesses(hits+misses) (Count)
board.cache_hierarchy.l1dcaches.WriteReq.hits::processor.switch.core.data      6473793                       # number of WriteReq hits (Count)
board.cache_hierarchy.l1dcaches.WriteReq.hits::total      6473793                       # number of WriteReq hits (Count)
board.cache_hierarchy.l1dcaches.WriteReq.misses::processor.switch.core.data           73                       # number of WriteReq misses (Count)
board.cache_hierarchy.l1dcaches.WriteReq.misses::total           73                       # number of WriteReq misses (Count)
board.cache_hierarchy.l1dcaches.WriteReq.missLatency::processor.switch.core.data      6022250                       # number of WriteReq miss ticks (Tick)
board.cache_hierarchy.l1dcaches.WriteReq.missLatency::total      6022250                       # number of WriteReq miss ticks (Tick)
board.cache_hierarchy.l1dcaches.WriteReq.accesses::processor.switch.core.data      6473866                       # number of WriteReq accesses(hits+misses) (Count)
board.cache_hierarchy.l1dcaches.WriteReq.accesses::total      6473866                       # number of WriteReq accesses(hits+misses) (Count)
board.cache_hierarchy.l1dcaches.WriteReq.missRate::processor.switch.core.data     0.000011                       # miss rate for WriteReq accesses (Ratio)
board.cache_hierarchy.l1dcaches.WriteReq.missRate::total     0.000011                       # miss rate for WriteReq accesses (Ratio)
board.cache_hierarchy.l1dcaches.WriteReq.avgMissLatency::processor.switch.core.data 82496.575342                       # average WriteReq miss latency ((Tick/Count))
board.cache_hierarchy.l1dcaches.WriteReq.avgMissLatency::total 82496.575342                       # average WriteReq miss latency ((Tick/Count))
board.cache_hierarchy.l1dcaches.WriteReq.mshrMisses::processor.switch.core.data           73                       # number of WriteReq MSHR misses (Count)
board.cache_hierarchy.l1dcaches.WriteReq.mshrMisses::total           73                       # number of WriteReq MSHR misses (Count)
board.cache_hierarchy.l1dcaches.WriteReq.mshrMissLatency::processor.switch.core.data      6004000                       # number of WriteReq MSHR miss ticks (Tick)
board.cache_hierarchy.l1dcaches.WriteReq.mshrMissLatency::total      6004000                       # number of WriteReq MSHR miss ticks (Tick)
board.cache_hierarchy.l1dcaches.WriteReq.mshrMissRate::processor.switch.core.data     0.000011                       # mshr miss rate for WriteReq accesses (Ratio)
board.cache_hierarchy.l1dcaches.WriteReq.mshrMissRate::total     0.000011                       # mshr miss rate for WriteReq accesses (Ratio)
board.cache_hierarchy.l1dcaches.WriteReq.avgMshrMissLatency::processor.switch.core.data 82246.575342                       # average WriteReq mshr miss latency ((Tick/Count))
board.cache_hierarchy.l1dcaches.WriteReq.avgMshrMissLatency::total 82246.575342                       # average WriteReq mshr miss latency ((Tick/Count))
board.cache_hierarchy.l1dcaches.power_state.pwrStateResidencyTicks::UNDEFINED  21639125500                       # Cumulative time (in ticks) in various power states (Tick)
board.cache_hierarchy.l1dcaches.prefetcher.demandMshrMisses           73                       # demands not covered by prefetchs (Count)
board.cache_hierarchy.l1dcaches.prefetcher.pfIssued        13515                       # number of hwpf issued (Count)
board.cache_hierarchy.l1dcaches.prefetcher.pfUseful         4578                       # number of useful prefetch (Count)
board.cache_hierarchy.l1dcaches.prefetcher.pfUsefulButMiss            0                       # number of hit on prefetch but cache block is not in an usable state (Count)
board.cache_hierarchy.l1dcaches.prefetcher.accuracy     0.338735                       # accuracy of the prefetcher (Count)
board.cache_hierarchy.l1dcaches.prefetcher.coverage     0.984304                       # coverage brought by this prefetcher (Count)
board.cache_hierarchy.l1dcaches.prefetcher.pfHitInCache         8937                       # number of prefetches hitting in cache (Count)
board.cache_hierarchy.l1dcaches.prefetcher.pfHitInMSHR            0                       # number of prefetches hitting in a MSHR (Count)
board.cache_hierarchy.l1dcaches.prefetcher.pfHitInWB            0                       # number of prefetches hit in the Write Buffer (Count)
board.cache_hierarchy.l1dcaches.prefetcher.pfLate         8937                       # number of late prefetches (hitting in cache, MSHR or WB) (Count)
board.cache_hierarchy.l1dcaches.prefetcher.pfIdentified        13515                       # number of prefetch candidates identified (Count)
board.cache_hierarchy.l1dcaches.prefetcher.pfBufferHit            0                       # number of redundant prefetches already in prefetch queue (Count)
board.cache_hierarchy.l1dcaches.prefetcher.pfInCache            0                       # number of redundant prefetches already in cache/mshr dropped (Count)
board.cache_hierarchy.l1dcaches.prefetcher.pfRemovedDemand            0                       # number of prefetches dropped due to a demand for the same address (Count)
board.cache_hierarchy.l1dcaches.prefetcher.pfRemovedFull            0                       # number of prefetches dropped due to prefetch queue size (Count)
board.cache_hierarchy.l1dcaches.prefetcher.pfSpanPage          438                       # number of prefetches that crossed the page (Count)
board.cache_hierarchy.l1dcaches.prefetcher.pfUsefulSpanPage          438                       # number of prefetches that is useful and crossed the page (Count)
board.cache_hierarchy.l1dcaches.prefetcher.power_state.pwrStateResidencyTicks::UNDEFINED  21639125500                       # Cumulative time (in ticks) in various power states (Tick)
board.cache_hierarchy.l1dcaches.tags.tagsInUse          512                       # Average ticks per tags in use ((Tick/Count))
board.cache_hierarchy.l1dcaches.tags.totalRefs        78994                       # Total number of references to valid blocks. (Count)
board.cache_hierarchy.l1dcaches.tags.sampledRefs         4651                       # Sample count of references to valid blocks. (Count)
board.cache_hierarchy.l1dcaches.tags.avgRefs    16.984304                       # Average number of references to valid blocks. ((Count/Count))
board.cache_hierarchy.l1dcaches.tags.warmupTick            0                       # The tick when the warmup percentage was hit. (Tick)
board.cache_hierarchy.l1dcaches.tags.occupancies::cache_hierarchy.l1dcaches.prefetcher          451                       # Average occupied blocks per tick, per requestor ((Count/Tick))
board.cache_hierarchy.l1dcaches.tags.occupancies::processor.switch.core.data           61                       # Average occupied blocks per tick, per requestor ((Count/Tick))
board.cache_hierarchy.l1dcaches.tags.avgOccs::cache_hierarchy.l1dcaches.prefetcher     0.880859                       # Average percentage of cache occupancy ((Ratio/Tick))
board.cache_hierarchy.l1dcaches.tags.avgOccs::processor.switch.core.data     0.119141                       # Average percentage of cache occupancy ((Ratio/Tick))
board.cache_hierarchy.l1dcaches.tags.avgOccs::total            1                       # Average percentage of cache occupancy ((Ratio/Tick))
board.cache_hierarchy.l1dcaches.tags.occupanciesTaskId::1022          451                       # Occupied blocks per task id (Count)
board.cache_hierarchy.l1dcaches.tags.occupanciesTaskId::1024           61                       # Occupied blocks per task id (Count)
board.cache_hierarchy.l1dcaches.tags.ageTaskId_1022::0            3                       # Occupied blocks per task id, per block age (Count)
board.cache_hierarchy.l1dcaches.tags.ageTaskId_1022::1           17                       # Occupied blocks per task id, per block age (Count)
board.cache_hierarchy.l1dcaches.tags.ageTaskId_1022::2          192                       # Occupied blocks per task id, per block age (Count)
board.cache_hierarchy.l1dcaches.tags.ageTaskId_1022::3          120                       # Occupied blocks per task id, per block age (Count)
board.cache_hierarchy.l1dcaches.tags.ageTaskId_1022::4          119                       # Occupied blocks per task id, per block age (Count)
board.cache_hierarchy.l1dcaches.tags.ageTaskId_1024::0            1                       # Occupied blocks per task id, per block age (Count)
board.cache_hierarchy.l1dcaches.tags.ageTaskId_1024::2            3                       # Occupied blocks per task id, per block age (Count)
board.cache_hierarchy.l1dcaches.tags.ageTaskId_1024::3            2                       # Occupied blocks per task id, per block age (Count)
board.cache_hierarchy.l1dcaches.tags.ageTaskId_1024::4           55                       # Occupied blocks per task id, per block age (Count)
board.cache_hierarchy.l1dcaches.tags.ratioOccsTaskId::1022     0.880859                       # Ratio of occupied blocks and all blocks, per task id (Ratio)
board.cache_hierarchy.l1dcaches.tags.ratioOccsTaskId::1024     0.119141                       # Ratio of occupied blocks and all blocks, per task id (Ratio)
board.cache_hierarchy.l1dcaches.tags.tagAccesses    187313939                       # Number of tag accesses (Count)
board.cache_hierarchy.l1dcaches.tags.dataAccesses    187313939                       # Number of data accesses (Count)
board.cache_hierarchy.l1dcaches.tags.power_state.pwrStateResidencyTicks::UNDEFINED  21639125500                       # Cumulative time (in ticks) in various power states (Tick)
board.cache_hierarchy.l1icaches.demandHits::processor.switch.core.inst     16884850                       # number of demand (read+write) hits (Count)
board.cache_hierarchy.l1icaches.demandHits::total     16884850                       # number of demand (read+write) hits (Count)
board.cache_hierarchy.l1icaches.overallHits::processor.switch.core.inst     16884850                       # number of overall hits (Count)
board.cache_hierarchy.l1icaches.overallHits::total     16884850                       # number of overall hits (Count)
board.cache_hierarchy.l1icaches.demandAccesses::processor.switch.core.inst     16884850                       # number of demand (read+write) accesses (Count)
board.cache_hierarchy.l1icaches.demandAccesses::total     16884850                       # number of demand (read+write) accesses (Count)
board.cache_hierarchy.l1icaches.overallAccesses::processor.switch.core.inst     16884850                       # number of overall (read+write) accesses (Count)
board.cache_hierarchy.l1icaches.overallAccesses::total     16884850                       # number of overall (read+write) accesses (Count)
board.cache_hierarchy.l1icaches.blockedCycles::no_mshrs            0                       # number of cycles access was blocked (Cycle)
board.cache_hierarchy.l1icaches.blockedCycles::no_wbuffers            0                       # number of cycles access was blocked (Cycle)
board.cache_hierarchy.l1icaches.blockedCycles::no_targets            0                       # number of cycles access was blocked (Cycle)
board.cache_hierarchy.l1icaches.blockedCauses::no_mshrs            0                       # number of times access was blocked (Count)
board.cache_hierarchy.l1icaches.blockedCauses::no_wbuffers            0                       # number of times access was blocked (Count)
board.cache_hierarchy.l1icaches.blockedCauses::no_targets            0                       # number of times access was blocked (Count)
board.cache_hierarchy.l1icaches.avgBlocked::no_mshrs          nan                       # average number of cycles each access was blocked ((Cycle/Count))
board.cache_hierarchy.l1icaches.avgBlocked::no_wbuffers          nan                       # average number of cycles each access was blocked ((Cycle/Count))
board.cache_hierarchy.l1icaches.avgBlocked::no_targets          nan                       # average number of cycles each access was blocked ((Cycle/Count))
board.cache_hierarchy.l1icaches.replacements            0                       # number of replacements (Count)
board.cache_hierarchy.l1icaches.ReadReq.hits::processor.switch.core.inst     16884850                       # number of ReadReq hits (Count)
board.cache_hierarchy.l1icaches.ReadReq.hits::total     16884850                       # number of ReadReq hits (Count)
board.cache_hierarchy.l1icaches.ReadReq.accesses::processor.switch.core.inst     16884850                       # number of ReadReq accesses(hits+misses) (Count)
board.cache_hierarchy.l1icaches.ReadReq.accesses::total     16884850                       # number of ReadReq accesses(hits+misses) (Count)
board.cache_hierarchy.l1icaches.power_state.pwrStateResidencyTicks::UNDEFINED  21639125500                       # Cumulative time (in ticks) in various power states (Tick)
board.cache_hierarchy.l1icaches.tags.tagsInUse           95                       # Average ticks per tags in use ((Tick/Count))
board.cache_hierarchy.l1icaches.tags.totalRefs            0                       # Total number of references to valid blocks. (Count)
board.cache_hierarchy.l1icaches.tags.sampledRefs            0                       # Sample count of references to valid blocks. (Count)
board.cache_hierarchy.l1icaches.tags.avgRefs          nan                       # Average number of references to valid blocks. ((Count/Count))
board.cache_hierarchy.l1icaches.tags.warmupTick            0                       # The tick when the warmup percentage was hit. (Tick)
board.cache_hierarchy.l1icaches.tags.occupancies::processor.switch.core.inst           95                       # Average occupied blocks per tick, per requestor ((Count/Tick))
board.cache_hierarchy.l1icaches.tags.avgOccs::processor.switch.core.inst     0.185547                       # Average percentage of cache occupancy ((Ratio/Tick))
board.cache_hierarchy.l1icaches.tags.avgOccs::total     0.185547                       # Average percentage of cache occupancy ((Ratio/Tick))
board.cache_hierarchy.l1icaches.tags.occupanciesTaskId::1024           95                       # Occupied blocks per task id (Count)
board.cache_hierarchy.l1icaches.tags.ageTaskId_1024::4           95                       # Occupied blocks per task id, per block age (Count)
board.cache_hierarchy.l1icaches.tags.ratioOccsTaskId::1024     0.185547                       # Ratio of occupied blocks and all blocks, per task id (Ratio)
board.cache_hierarchy.l1icaches.tags.tagAccesses    135078800                       # Number of tag accesses (Count)
board.cache_hierarchy.l1icaches.tags.dataAccesses    135078800                       # Number of data accesses (Count)
board.cache_hierarchy.l1icaches.tags.power_state.pwrStateResidencyTicks::UNDEFINED  21639125500                       # Cumulative time (in ticks) in various power states (Tick)
board.cache_hierarchy.l2buses.transDist::ReadResp         4578                       # Transaction distribution (Count)
board.cache_hierarchy.l2buses.transDist::WritebackDirty         4651                       # Transaction distribution (Count)
board.cache_hierarchy.l2buses.transDist::ReadExReq           73                       # Transaction distribution (Count)
board.cache_hierarchy.l2buses.transDist::ReadExResp           73                       # Transaction distribution (Count)
board.cache_hierarchy.l2buses.transDist::ReadSharedReq         4578                       # Transaction distribution (Count)
board.cache_hierarchy.l2buses.pktCount_board.cache_hierarchy.l1dcaches.mem_side_port::board.cache_hierarchy.l2caches.cpu_side_port        13953                       # Packet count per connected requestor and responder (Count)
board.cache_hierarchy.l2buses.pktCount::total        13953                       # Packet count per connected requestor and responder (Count)
board.cache_hierarchy.l2buses.pktSize_board.cache_hierarchy.l1dcaches.mem_side_port::board.cache_hierarchy.l2caches.cpu_side_port       595328                       # Cumulative packet size per connected requestor and responder (Byte)
board.cache_hierarchy.l2buses.pktSize::total       595328                       # Cumulative packet size per connected requestor and responder (Byte)
board.cache_hierarchy.l2buses.snoops                0                       # Total snoops (Count)
board.cache_hierarchy.l2buses.snoopTraffic            0                       # Total snoop traffic (Byte)
board.cache_hierarchy.l2buses.snoopFanout::samples         4651                       # Request fanout histogram (Count)
board.cache_hierarchy.l2buses.snoopFanout::mean            0                       # Request fanout histogram (Count)
board.cache_hierarchy.l2buses.snoopFanout::stdev            0                       # Request fanout histogram (Count)
board.cache_hierarchy.l2buses.snoopFanout::underflows            0      0.00%      0.00% # Request fanout histogram (Count)
board.cache_hierarchy.l2buses.snoopFanout::0         4651    100.00%    100.00% # Request fanout histogram (Count)
board.cache_hierarchy.l2buses.snoopFanout::1            0      0.00%    100.00% # Request fanout histogram (Count)
board.cache_hierarchy.l2buses.snoopFanout::2            0      0.00%    100.00% # Request fanout histogram (Count)
board.cache_hierarchy.l2buses.snoopFanout::3            0      0.00%    100.00% # Request fanout histogram (Count)
board.cache_hierarchy.l2buses.snoopFanout::4            0      0.00%    100.00% # Request fanout histogram (Count)
board.cache_hierarchy.l2buses.snoopFanout::overflows            0      0.00%    100.00% # Request fanout histogram (Count)
board.cache_hierarchy.l2buses.snoopFanout::min_value            0                       # Request fanout histogram (Count)
board.cache_hierarchy.l2buses.snoopFanout::max_value            0                       # Request fanout histogram (Count)
board.cache_hierarchy.l2buses.snoopFanout::total         4651                       # Request fanout histogram (Count)
board.cache_hierarchy.l2buses.power_state.pwrStateResidencyTicks::UNDEFINED  21639125500                       # Cumulative time (in ticks) in various power states (Tick)
board.cache_hierarchy.l2buses.reqLayer0.occupancy      4569282                       # Layer occupancy (ticks) (Tick)
board.cache_hierarchy.l2buses.reqLayer0.utilization          0.0                       # Layer utilization (Ratio)
board.cache_hierarchy.l2buses.respLayer1.occupancy      2325500                       # Layer occupancy (ticks) (Tick)
board.cache_hierarchy.l2buses.respLayer1.utilization          0.0                       # Layer utilization (Ratio)
board.cache_hierarchy.l2buses.snoop_filter.totRequests         9302                       # Total number of requests made to the snoop filter. (Count)
board.cache_hierarchy.l2buses.snoop_filter.hitSingleRequests         4651                       # Number of requests hitting in the snoop filter with a single holder of the requested data. (Count)
board.cache_hierarchy.l2buses.snoop_filter.hitMultiRequests            0                       # Number of requests hitting in the snoop filter with multiple (>1) holders of the requested data. (Count)
board.cache_hierarchy.l2buses.snoop_filter.totSnoops            0                       # Total number of snoops made to the snoop filter. (Count)
board.cache_hierarchy.l2buses.snoop_filter.hitSingleSnoops            0                       # Number of snoops hitting in the snoop filter with a single holder of the requested data. (Count)
board.cache_hierarchy.l2buses.snoop_filter.hitMultiSnoops            0                       # Number of snoops hitting in the snoop filter with multiple (>1) holders of the requested data. (Count)
board.cache_hierarchy.l2caches.demandMisses::cache_hierarchy.l1dcaches.prefetcher         4578                       # number of demand (read+write) misses (Count)
board.cache_hierarchy.l2caches.demandMisses::processor.switch.core.data           73                       # number of demand (read+write) misses (Count)
board.cache_hierarchy.l2caches.demandMisses::total         4651                       # number of demand (read+write) misses (Count)
board.cache_hierarchy.l2caches.overallMisses::cache_hierarchy.l1dcaches.prefetcher         4578                       # number of overall misses (Count)
board.cache_hierarchy.l2caches.overallMisses::processor.switch.core.data           73                       # number of overall misses (Count)
board.cache_hierarchy.l2caches.overallMisses::total         4651                       # number of overall misses (Count)
board.cache_hierarchy.l2caches.demandMissLatency::cache_hierarchy.l1dcaches.prefetcher    361535282                       # number of demand (read+write) miss ticks (Tick)
board.cache_hierarchy.l2caches.demandMissLatency::processor.switch.core.data      5912750                       # number of demand (read+write) miss ticks (Tick)
board.cache_hierarchy.l2caches.demandMissLatency::total    367448032                       # number of demand (read+write) miss ticks (Tick)
board.cache_hierarchy.l2caches.overallMissLatency::cache_hierarchy.l1dcaches.prefetcher    361535282                       # number of overall miss ticks (Tick)
board.cache_hierarchy.l2caches.overallMissLatency::processor.switch.core.data      5912750                       # number of overall miss ticks (Tick)
board.cache_hierarchy.l2caches.overallMissLatency::total    367448032                       # number of overall miss ticks (Tick)
board.cache_hierarchy.l2caches.demandAccesses::cache_hierarchy.l1dcaches.prefetcher         4578                       # number of demand (read+write) accesses (Count)
board.cache_hierarchy.l2caches.demandAccesses::processor.switch.core.data           73                       # number of demand (read+write) accesses (Count)
board.cache_hierarchy.l2caches.demandAccesses::total         4651                       # number of demand (read+write) accesses (Count)
board.cache_hierarchy.l2caches.overallAccesses::cache_hierarchy.l1dcaches.prefetcher         4578                       # number of overall (read+write) accesses (Count)
board.cache_hierarchy.l2caches.overallAccesses::processor.switch.core.data           73                       # number of overall (read+write) accesses (Count)
board.cache_hierarchy.l2caches.overallAccesses::total         4651                       # number of overall (read+write) accesses (Count)
board.cache_hierarchy.l2caches.demandMissRate::cache_hierarchy.l1dcaches.prefetcher            1                       # miss rate for demand accesses (Ratio)
board.cache_hierarchy.l2caches.demandMissRate::processor.switch.core.data            1                       # miss rate for demand accesses (Ratio)
board.cache_hierarchy.l2caches.demandMissRate::total            1                       # miss rate for demand accesses (Ratio)
board.cache_hierarchy.l2caches.overallMissRate::cache_hierarchy.l1dcaches.prefetcher            1                       # miss rate for overall accesses (Ratio)
board.cache_hierarchy.l2caches.overallMissRate::processor.switch.core.data            1                       # miss rate for overall accesses (Ratio)
board.cache_hierarchy.l2caches.overallMissRate::total            1                       # miss rate for overall accesses (Ratio)
board.cache_hierarchy.l2caches.demandAvgMissLatency::cache_hierarchy.l1dcaches.prefetcher 78972.320227                       # average overall miss latency in ticks ((Tick/Count))
board.cache_hierarchy.l2caches.demandAvgMissLatency::processor.switch.core.data 80996.575342                       # average overall miss latency in ticks ((Tick/Count))
board.cache_hierarchy.l2caches.demandAvgMissLatency::total 79004.092023                       # average overall miss latency in ticks ((Tick/Count))
board.cache_hierarchy.l2caches.overallAvgMissLatency::cache_hierarchy.l1dcaches.prefetcher 78972.320227                       # average overall miss latency ((Tick/Count))
board.cache_hierarchy.l2caches.overallAvgMissLatency::processor.switch.core.data 80996.575342                       # average overall miss latency ((Tick/Count))
board.cache_hierarchy.l2caches.overallAvgMissLatency::total 79004.092023                       # average overall miss latency ((Tick/Count))
board.cache_hierarchy.l2caches.blockedCycles::no_mshrs            0                       # number of cycles access was blocked (Cycle)
board.cache_hierarchy.l2caches.blockedCycles::no_wbuffers            0                       # number of cycles access was blocked (Cycle)
board.cache_hierarchy.l2caches.blockedCycles::no_targets            0                       # number of cycles access was blocked (Cycle)
board.cache_hierarchy.l2caches.blockedCauses::no_mshrs            0                       # number of times access was blocked (Count)
board.cache_hierarchy.l2caches.blockedCauses::no_wbuffers            0                       # number of times access was blocked (Count)
board.cache_hierarchy.l2caches.blockedCauses::no_targets            0                       # number of times access was blocked (Count)
board.cache_hierarchy.l2caches.avgBlocked::no_mshrs          nan                       # average number of cycles each access was blocked ((Cycle/Count))
board.cache_hierarchy.l2caches.avgBlocked::no_wbuffers          nan                       # average number of cycles each access was blocked ((Cycle/Count))
board.cache_hierarchy.l2caches.avgBlocked::no_targets          nan                       # average number of cycles each access was blocked ((Cycle/Count))
board.cache_hierarchy.l2caches.demandMshrMisses::cache_hierarchy.l1dcaches.prefetcher         4578                       # number of demand (read+write) MSHR misses (Count)
board.cache_hierarchy.l2caches.demandMshrMisses::processor.switch.core.data           73                       # number of demand (read+write) MSHR misses (Count)
board.cache_hierarchy.l2caches.demandMshrMisses::total         4651                       # number of demand (read+write) MSHR misses (Count)
board.cache_hierarchy.l2caches.overallMshrMisses::cache_hierarchy.l1dcaches.prefetcher         4578                       # number of overall MSHR misses (Count)
board.cache_hierarchy.l2caches.overallMshrMisses::processor.switch.core.data           73                       # number of overall MSHR misses (Count)
board.cache_hierarchy.l2caches.overallMshrMisses::total         4651                       # number of overall MSHR misses (Count)
board.cache_hierarchy.l2caches.demandMshrMissLatency::cache_hierarchy.l1dcaches.prefetcher    360390782                       # number of demand (read+write) MSHR miss ticks (Tick)
board.cache_hierarchy.l2caches.demandMshrMissLatency::processor.switch.core.data      5894500                       # number of demand (read+write) MSHR miss ticks (Tick)
board.cache_hierarchy.l2caches.demandMshrMissLatency::total    366285282                       # number of demand (read+write) MSHR miss ticks (Tick)
board.cache_hierarchy.l2caches.overallMshrMissLatency::cache_hierarchy.l1dcaches.prefetcher    360390782                       # number of overall MSHR miss ticks (Tick)
board.cache_hierarchy.l2caches.overallMshrMissLatency::processor.switch.core.data      5894500                       # number of overall MSHR miss ticks (Tick)
board.cache_hierarchy.l2caches.overallMshrMissLatency::total    366285282                       # number of overall MSHR miss ticks (Tick)
board.cache_hierarchy.l2caches.demandMshrMissRate::cache_hierarchy.l1dcaches.prefetcher            1                       # mshr miss ratio for demand accesses (Ratio)
board.cache_hierarchy.l2caches.demandMshrMissRate::processor.switch.core.data            1                       # mshr miss ratio for demand accesses (Ratio)
board.cache_hierarchy.l2caches.demandMshrMissRate::total            1                       # mshr miss ratio for demand accesses (Ratio)
board.cache_hierarchy.l2caches.overallMshrMissRate::cache_hierarchy.l1dcaches.prefetcher            1                       # mshr miss ratio for overall accesses (Ratio)
board.cache_hierarchy.l2caches.overallMshrMissRate::processor.switch.core.data            1                       # mshr miss ratio for overall accesses (Ratio)
board.cache_hierarchy.l2caches.overallMshrMissRate::total            1                       # mshr miss ratio for overall accesses (Ratio)
board.cache_hierarchy.l2caches.demandAvgMshrMissLatency::cache_hierarchy.l1dcaches.prefetcher 78722.320227                       # average overall mshr miss latency ((Tick/Count))
board.cache_hierarchy.l2caches.demandAvgMshrMissLatency::processor.switch.core.data 80746.575342                       # average overall mshr miss latency ((Tick/Count))
board.cache_hierarchy.l2caches.demandAvgMshrMissLatency::total 78754.092023                       # average overall mshr miss latency ((Tick/Count))
board.cache_hierarchy.l2caches.overallAvgMshrMissLatency::cache_hierarchy.l1dcaches.prefetcher 78722.320227                       # average overall mshr miss latency ((Tick/Count))
board.cache_hierarchy.l2caches.overallAvgMshrMissLatency::processor.switch.core.data 80746.575342                       # average overall mshr miss latency ((Tick/Count))
board.cache_hierarchy.l2caches.overallAvgMshrMissLatency::total 78754.092023                       # average overall mshr miss latency ((Tick/Count))
board.cache_hierarchy.l2caches.replacements            0                       # number of replacements (Count)
board.cache_hierarchy.l2caches.ReadExReq.misses::processor.switch.core.data           73                       # number of ReadExReq misses (Count)
board.cache_hierarchy.l2caches.ReadExReq.misses::total           73                       # number of ReadExReq misses (Count)
board.cache_hierarchy.l2caches.ReadExReq.missLatency::processor.switch.core.data      5912750                       # number of ReadExReq miss ticks (Tick)
board.cache_hierarchy.l2caches.ReadExReq.missLatency::total      5912750                       # number of ReadExReq miss ticks (Tick)
board.cache_hierarchy.l2caches.ReadExReq.accesses::processor.switch.core.data           73                       # number of ReadExReq accesses(hits+misses) (Count)
board.cache_hierarchy.l2caches.ReadExReq.accesses::total           73                       # number of ReadExReq accesses(hits+misses) (Count)
board.cache_hierarchy.l2caches.ReadExReq.missRate::processor.switch.core.data            1                       # miss rate for ReadExReq accesses (Ratio)
board.cache_hierarchy.l2caches.ReadExReq.missRate::total            1                       # miss rate for ReadExReq accesses (Ratio)
board.cache_hierarchy.l2caches.ReadExReq.avgMissLatency::processor.switch.core.data 80996.575342                       # average ReadExReq miss latency ((Tick/Count))
board.cache_hierarchy.l2caches.ReadExReq.avgMissLatency::total 80996.575342                       # average ReadExReq miss latency ((Tick/Count))
board.cache_hierarchy.l2caches.ReadExReq.mshrMisses::processor.switch.core.data           73                       # number of ReadExReq MSHR misses (Count)
board.cache_hierarchy.l2caches.ReadExReq.mshrMisses::total           73                       # number of ReadExReq MSHR misses (Count)
board.cache_hierarchy.l2caches.ReadExReq.mshrMissLatency::processor.switch.core.data      5894500                       # number of ReadExReq MSHR miss ticks (Tick)
board.cache_hierarchy.l2caches.ReadExReq.mshrMissLatency::total      5894500                       # number of ReadExReq MSHR miss ticks (Tick)
board.cache_hierarchy.l2caches.ReadExReq.mshrMissRate::processor.switch.core.data            1                       # mshr miss rate for ReadExReq accesses (Ratio)
board.cache_hierarchy.l2caches.ReadExReq.mshrMissRate::total            1                       # mshr miss rate for ReadExReq accesses (Ratio)
board.cache_hierarchy.l2caches.ReadExReq.avgMshrMissLatency::processor.switch.core.data 80746.575342                       # average ReadExReq mshr miss latency ((Tick/Count))
board.cache_hierarchy.l2caches.ReadExReq.avgMshrMissLatency::total 80746.575342                       # average ReadExReq mshr miss latency ((Tick/Count))
board.cache_hierarchy.l2caches.ReadSharedReq.misses::cache_hierarchy.l1dcaches.prefetcher         4578                       # number of ReadSharedReq misses (Count)
board.cache_hierarchy.l2caches.ReadSharedReq.misses::total         4578                       # number of ReadSharedReq misses (Count)
board.cache_hierarchy.l2caches.ReadSharedReq.missLatency::cache_hierarchy.l1dcaches.prefetcher    361535282                       # number of ReadSharedReq miss ticks (Tick)
board.cache_hierarchy.l2caches.ReadSharedReq.missLatency::total    361535282                       # number of ReadSharedReq miss ticks (Tick)
board.cache_hierarchy.l2caches.ReadSharedReq.accesses::cache_hierarchy.l1dcaches.prefetcher         4578                       # number of ReadSharedReq accesses(hits+misses) (Count)
board.cache_hierarchy.l2caches.ReadSharedReq.accesses::total         4578                       # number of ReadSharedReq accesses(hits+misses) (Count)
board.cache_hierarchy.l2caches.ReadSharedReq.missRate::cache_hierarchy.l1dcaches.prefetcher            1                       # miss rate for ReadSharedReq accesses (Ratio)
board.cache_hierarchy.l2caches.ReadSharedReq.missRate::total            1                       # miss rate for ReadSharedReq accesses (Ratio)
board.cache_hierarchy.l2caches.ReadSharedReq.avgMissLatency::cache_hierarchy.l1dcaches.prefetcher 78972.320227                       # average ReadSharedReq miss latency ((Tick/Count))
board.cache_hierarchy.l2caches.ReadSharedReq.avgMissLatency::total 78972.320227                       # average ReadSharedReq miss latency ((Tick/Count))
board.cache_hierarchy.l2caches.ReadSharedReq.mshrMisses::cache_hierarchy.l1dcaches.prefetcher         4578                       # number of ReadSharedReq MSHR misses (Count)
board.cache_hierarchy.l2caches.ReadSharedReq.mshrMisses::total         4578                       # number of ReadSharedReq MSHR misses (Count)
board.cache_hierarchy.l2caches.ReadSharedReq.mshrMissLatency::cache_hierarchy.l1dcaches.prefetcher    360390782                       # number of ReadSharedReq MSHR miss ticks (Tick)
board.cache_hierarchy.l2caches.ReadSharedReq.mshrMissLatency::total    360390782                       # number of ReadSharedReq MSHR miss ticks (Tick)
board.cache_hierarchy.l2caches.ReadSharedReq.mshrMissRate::cache_hierarchy.l1dcaches.prefetcher            1                       # mshr miss rate for ReadSharedReq accesses (Ratio)
board.cache_hierarchy.l2caches.ReadSharedReq.mshrMissRate::total            1                       # mshr miss rate for ReadSharedReq accesses (Ratio)
board.cache_hierarchy.l2caches.ReadSharedReq.avgMshrMissLatency::cache_hierarchy.l1dcaches.prefetcher 78722.320227                       # average ReadSharedReq mshr miss latency ((Tick/Count))
board.cache_hierarchy.l2caches.ReadSharedReq.avgMshrMissLatency::total 78722.320227                       # average ReadSharedReq mshr miss latency ((Tick/Count))
board.cache_hierarchy.l2caches.WritebackDirty.hits::writebacks         4651                       # number of WritebackDirty hits (Count)
board.cache_hierarchy.l2caches.WritebackDirty.hits::total         4651                       # number of WritebackDirty hits (Count)
board.cache_hierarchy.l2caches.WritebackDirty.accesses::writebacks         4651                       # number of WritebackDirty accesses(hits+misses) (Count)
board.cache_hierarchy.l2caches.WritebackDirty.accesses::total         4651                       # number of WritebackDirty accesses(hits+misses) (Count)
board.cache_hierarchy.l2caches.power_state.pwrStateResidencyTicks::UNDEFINED  21639125500                       # Cumulative time (in ticks) in various power states (Tick)
board.cache_hierarchy.l2caches.tags.tagsInUse  5039.324587                       # Average ticks per tags in use ((Tick/Count))
board.cache_hierarchy.l2caches.tags.totalRefs            0                       # Total number of references to valid blocks. (Count)
board.cache_hierarchy.l2caches.tags.sampledRefs            0                       # Sample count of references to valid blocks. (Count)
board.cache_hierarchy.l2caches.tags.avgRefs          nan                       # Average number of references to valid blocks. ((Count/Count))
board.cache_hierarchy.l2caches.tags.warmupTick            0                       # The tick when the warmup percentage was hit. (Tick)
board.cache_hierarchy.l2caches.tags.occupancies::cache_hierarchy.l1dcaches.prefetcher  4806.155726                       # Average occupied blocks per tick, per requestor ((Count/Tick))
board.cache_hierarchy.l2caches.tags.occupancies::processor.switch.core.inst           95                       # Average occupied blocks per tick, per requestor ((Count/Tick))
board.cache_hierarchy.l2caches.tags.occupancies::processor.switch.core.data   138.168861                       # Average occupied blocks per tick, per requestor ((Count/Tick))
board.cache_hierarchy.l2caches.tags.avgOccs::cache_hierarchy.l1dcaches.prefetcher     0.293344                       # Average percentage of cache occupancy ((Ratio/Tick))
board.cache_hierarchy.l2caches.tags.avgOccs::processor.switch.core.inst     0.005798                       # Average percentage of cache occupancy ((Ratio/Tick))
board.cache_hierarchy.l2caches.tags.avgOccs::processor.switch.core.data     0.008433                       # Average percentage of cache occupancy ((Ratio/Tick))
board.cache_hierarchy.l2caches.tags.avgOccs::total     0.307576                       # Average percentage of cache occupancy ((Ratio/Tick))
board.cache_hierarchy.l2caches.tags.occupanciesTaskId::1022         7095                       # Occupied blocks per task id (Count)
board.cache_hierarchy.l2caches.tags.occupanciesTaskId::1024          270                       # Occupied blocks per task id (Count)
board.cache_hierarchy.l2caches.tags.ageTaskId_1022::0            3                       # Occupied blocks per task id, per block age (Count)
board.cache_hierarchy.l2caches.tags.ageTaskId_1022::1           17                       # Occupied blocks per task id, per block age (Count)
board.cache_hierarchy.l2caches.tags.ageTaskId_1022::2          192                       # Occupied blocks per task id, per block age (Count)
board.cache_hierarchy.l2caches.tags.ageTaskId_1022::3         1903                       # Occupied blocks per task id, per block age (Count)
board.cache_hierarchy.l2caches.tags.ageTaskId_1022::4         4980                       # Occupied blocks per task id, per block age (Count)
board.cache_hierarchy.l2caches.tags.ageTaskId_1024::0            1                       # Occupied blocks per task id, per block age (Count)
board.cache_hierarchy.l2caches.tags.ageTaskId_1024::2            3                       # Occupied blocks per task id, per block age (Count)
board.cache_hierarchy.l2caches.tags.ageTaskId_1024::3           30                       # Occupied blocks per task id, per block age (Count)
board.cache_hierarchy.l2caches.tags.ageTaskId_1024::4          236                       # Occupied blocks per task id, per block age (Count)
board.cache_hierarchy.l2caches.tags.ratioOccsTaskId::1022     0.433044                       # Ratio of occupied blocks and all blocks, per task id (Ratio)
board.cache_hierarchy.l2caches.tags.ratioOccsTaskId::1024     0.016479                       # Ratio of occupied blocks and all blocks, per task id (Ratio)
board.cache_hierarchy.l2caches.tags.tagAccesses       153483                       # Number of tag accesses (Count)
board.cache_hierarchy.l2caches.tags.dataAccesses       153483                       # Number of data accesses (Count)
board.cache_hierarchy.l2caches.tags.power_state.pwrStateResidencyTicks::UNDEFINED  21639125500                       # Cumulative time (in ticks) in various power states (Tick)
board.cache_hierarchy.llcXbar.transDist::ReadResp         4578                       # Transaction distribution (Count)
board.cache_hierarchy.llcXbar.transDist::ReadExReq           73                       # Transaction distribution (Count)
board.cache_hierarchy.llcXbar.transDist::ReadExResp           73                       # Transaction distribution (Count)
board.cache_hierarchy.llcXbar.transDist::ReadSharedReq         4578                       # Transaction distribution (Count)
board.cache_hierarchy.llcXbar.pktCount_board.cache_hierarchy.l2caches.mem_side_port::board.cache_hierarchy.llcache.cpu_side_port         9302                       # Packet count per connected requestor and responder (Count)
board.cache_hierarchy.llcXbar.pktSize_board.cache_hierarchy.l2caches.mem_side_port::board.cache_hierarchy.llcache.cpu_side_port       297664                       # Cumulative packet size per connected requestor and responder (Byte)
board.cache_hierarchy.llcXbar.snoops                0                       # Total snoops (Count)
board.cache_hierarchy.llcXbar.snoopTraffic            0                       # Total snoop traffic (Byte)
board.cache_hierarchy.llcXbar.snoopFanout::samples         4651                       # Request fanout histogram (Count)
board.cache_hierarchy.llcXbar.snoopFanout::mean            0                       # Request fanout histogram (Count)
board.cache_hierarchy.llcXbar.snoopFanout::stdev            0                       # Request fanout histogram (Count)
board.cache_hierarchy.llcXbar.snoopFanout::underflows            0      0.00%      0.00% # Request fanout histogram (Count)
board.cache_hierarchy.llcXbar.snoopFanout::0         4651    100.00%    100.00% # Request fanout histogram (Count)
board.cache_hierarchy.llcXbar.snoopFanout::1            0      0.00%    100.00% # Request fanout histogram (Count)
board.cache_hierarchy.llcXbar.snoopFanout::overflows            0      0.00%    100.00% # Request fanout histogram (Count)
board.cache_hierarchy.llcXbar.snoopFanout::min_value            0                       # Request fanout histogram (Count)
board.cache_hierarchy.llcXbar.snoopFanout::max_value            0                       # Request fanout histogram (Count)
board.cache_hierarchy.llcXbar.snoopFanout::total         4651                       # Request fanout histogram (Count)
board.cache_hierarchy.llcXbar.power_state.pwrStateResidencyTicks::UNDEFINED  21639125500                       # Cumulative time (in ticks) in various power states (Tick)
board.cache_hierarchy.llcXbar.reqLayer0.occupancy      1171468                       # Layer occupancy (ticks) (Tick)
board.cache_hierarchy.llcXbar.reqLayer0.utilization          0.0                       # Layer utilization (Ratio)
board.cache_hierarchy.llcXbar.respLayer0.occupancy      2325500                       # Layer occupancy (ticks) (Tick)
board.cache_hierarchy.llcXbar.respLayer0.utilization          0.0                       # Layer utilization (Ratio)
board.cache_hierarchy.llcXbar.snoop_filter.totRequests         4651                       # Total number of requests made to the snoop filter. (Count)
board.cache_hierarchy.llcXbar.snoop_filter.hitSingleRequests            0                       # Number of requests hitting in the snoop filter with a single holder of the requested data. (Count)
board.cache_hierarchy.llcXbar.snoop_filter.hitMultiRequests            0                       # Number of requests hitting in the snoop filter with multiple (>1) holders of the requested data. (Count)
board.cache_hierarchy.llcXbar.snoop_filter.totSnoops            0                       # Total number of snoops made to the snoop filter. (Count)
board.cache_hierarchy.llcXbar.snoop_filter.hitSingleSnoops            0                       # Number of snoops hitting in the snoop filter with a single holder of the requested data. (Count)
board.cache_hierarchy.llcXbar.snoop_filter.hitMultiSnoops            0                       # Number of snoops hitting in the snoop filter with multiple (>1) holders of the requested data. (Count)
board.cache_hierarchy.llcache.demandMisses::cache_hierarchy.l1dcaches.prefetcher         4578                       # number of demand (read+write) misses (Count)
board.cache_hierarchy.llcache.demandMisses::processor.switch.core.data           73                       # number of demand (read+write) misses (Count)
board.cache_hierarchy.llcache.demandMisses::total         4651                       # number of demand (read+write) misses (Count)
board.cache_hierarchy.llcache.overallMisses::cache_hierarchy.l1dcaches.prefetcher         4578                       # number of overall misses (Count)
board.cache_hierarchy.llcache.overallMisses::processor.switch.core.data           73                       # number of overall misses (Count)
board.cache_hierarchy.llcache.overallMisses::total         4651                       # number of overall misses (Count)
board.cache_hierarchy.llcache.demandMissLatency::cache_hierarchy.l1dcaches.prefetcher    339916718                       # number of demand (read+write) miss ticks (Tick)
board.cache_hierarchy.llcache.demandMissLatency::processor.switch.core.data      5602500                       # number of demand (read+write) miss ticks (Tick)
board.cache_hierarchy.llcache.demandMissLatency::total    345519218                       # number of demand (read+write) miss ticks (Tick)
board.cache_hierarchy.llcache.overallMissLatency::cache_hierarchy.l1dcaches.prefetcher    339916718                       # number of overall miss ticks (Tick)
board.cache_hierarchy.llcache.overallMissLatency::processor.switch.core.data      5602500                       # number of overall miss ticks (Tick)
board.cache_hierarchy.llcache.overallMissLatency::total    345519218                       # number of overall miss ticks (Tick)
board.cache_hierarchy.llcache.demandAccesses::cache_hierarchy.l1dcaches.prefetcher         4578                       # number of demand (read+write) accesses (Count)
board.cache_hierarchy.llcache.demandAccesses::processor.switch.core.data           73                       # number of demand (read+write) accesses (Count)
board.cache_hierarchy.llcache.demandAccesses::total         4651                       # number of demand (read+write) accesses (Count)
board.cache_hierarchy.llcache.overallAccesses::cache_hierarchy.l1dcaches.prefetcher         4578                       # number of overall (read+write) accesses (Count)
board.cache_hierarchy.llcache.overallAccesses::processor.switch.core.data           73                       # number of overall (read+write) accesses (Count)
board.cache_hierarchy.llcache.overallAccesses::total         4651                       # number of overall (read+write) accesses (Count)
board.cache_hierarchy.llcache.demandMissRate::cache_hierarchy.l1dcaches.prefetcher            1                       # miss rate for demand accesses (Ratio)
board.cache_hierarchy.llcache.demandMissRate::processor.switch.core.data            1                       # miss rate for demand accesses (Ratio)
board.cache_hierarchy.llcache.demandMissRate::total            1                       # miss rate for demand accesses (Ratio)
board.cache_hierarchy.llcache.overallMissRate::cache_hierarchy.l1dcaches.prefetcher            1                       # miss rate for overall accesses (Ratio)
board.cache_hierarchy.llcache.overallMissRate::processor.switch.core.data            1                       # miss rate for overall accesses (Ratio)
board.cache_hierarchy.llcache.overallMissRate::total            1                       # miss rate for overall accesses (Ratio)
board.cache_hierarchy.llcache.demandAvgMissLatency::cache_hierarchy.l1dcaches.prefetcher 74250.047619                       # average overall miss latency in ticks ((Tick/Count))
board.cache_hierarchy.llcache.demandAvgMissLatency::processor.switch.core.data 76746.575342                       # average overall miss latency in ticks ((Tick/Count))
board.cache_hierarchy.llcache.demandAvgMissLatency::total 74289.231993                       # average overall miss latency in ticks ((Tick/Count))
board.cache_hierarchy.llcache.overallAvgMissLatency::cache_hierarchy.l1dcaches.prefetcher 74250.047619                       # average overall miss latency ((Tick/Count))
board.cache_hierarchy.llcache.overallAvgMissLatency::processor.switch.core.data 76746.575342                       # average overall miss latency ((Tick/Count))
board.cache_hierarchy.llcache.overallAvgMissLatency::total 74289.231993                       # average overall miss latency ((Tick/Count))
board.cache_hierarchy.llcache.blockedCycles::no_mshrs            0                       # number of cycles access was blocked (Cycle)
board.cache_hierarchy.llcache.blockedCycles::no_wbuffers            0                       # number of cycles access was blocked (Cycle)
board.cache_hierarchy.llcache.blockedCycles::no_targets            0                       # number of cycles access was blocked (Cycle)
board.cache_hierarchy.llcache.blockedCauses::no_mshrs            0                       # number of times access was blocked (Count)
board.cache_hierarchy.llcache.blockedCauses::no_wbuffers            0                       # number of times access was blocked (Count)
board.cache_hierarchy.llcache.blockedCauses::no_targets            0                       # number of times access was blocked (Count)
board.cache_hierarchy.llcache.avgBlocked::no_mshrs          nan                       # average number of cycles each access was blocked ((Cycle/Count))
board.cache_hierarchy.llcache.avgBlocked::no_wbuffers          nan                       # average number of cycles each access was blocked ((Cycle/Count))
board.cache_hierarchy.llcache.avgBlocked::no_targets          nan                       # average number of cycles each access was blocked ((Cycle/Count))
board.cache_hierarchy.llcache.demandMshrMisses::cache_hierarchy.l1dcaches.prefetcher         4578                       # number of demand (read+write) MSHR misses (Count)
board.cache_hierarchy.llcache.demandMshrMisses::processor.switch.core.data           73                       # number of demand (read+write) MSHR misses (Count)
board.cache_hierarchy.llcache.demandMshrMisses::total         4651                       # number of demand (read+write) MSHR misses (Count)
board.cache_hierarchy.llcache.overallMshrMisses::cache_hierarchy.l1dcaches.prefetcher         4578                       # number of overall MSHR misses (Count)
board.cache_hierarchy.llcache.overallMshrMisses::processor.switch.core.data           73                       # number of overall MSHR misses (Count)
board.cache_hierarchy.llcache.overallMshrMisses::total         4651                       # number of overall MSHR misses (Count)
board.cache_hierarchy.llcache.demandMshrMissLatency::cache_hierarchy.l1dcaches.prefetcher    338772218                       # number of demand (read+write) MSHR miss ticks (Tick)
board.cache_hierarchy.llcache.demandMshrMissLatency::processor.switch.core.data      5584250                       # number of demand (read+write) MSHR miss ticks (Tick)
board.cache_hierarchy.llcache.demandMshrMissLatency::total    344356468                       # number of demand (read+write) MSHR miss ticks (Tick)
board.cache_hierarchy.llcache.overallMshrMissLatency::cache_hierarchy.l1dcaches.prefetcher    338772218                       # number of overall MSHR miss ticks (Tick)
board.cache_hierarchy.llcache.overallMshrMissLatency::processor.switch.core.data      5584250                       # number of overall MSHR miss ticks (Tick)
board.cache_hierarchy.llcache.overallMshrMissLatency::total    344356468                       # number of overall MSHR miss ticks (Tick)
board.cache_hierarchy.llcache.demandMshrMissRate::cache_hierarchy.l1dcaches.prefetcher            1                       # mshr miss ratio for demand accesses (Ratio)
board.cache_hierarchy.llcache.demandMshrMissRate::processor.switch.core.data            1                       # mshr miss ratio for demand accesses (Ratio)
board.cache_hierarchy.llcache.demandMshrMissRate::total            1                       # mshr miss ratio for demand accesses (Ratio)
board.cache_hierarchy.llcache.overallMshrMissRate::cache_hierarchy.l1dcaches.prefetcher            1                       # mshr miss ratio for overall accesses (Ratio)
board.cache_hierarchy.llcache.overallMshrMissRate::processor.switch.core.data            1                       # mshr miss ratio for overall accesses (Ratio)
board.cache_hierarchy.llcache.overallMshrMissRate::total            1                       # mshr miss ratio for overall accesses (Ratio)
board.cache_hierarchy.llcache.demandAvgMshrMissLatency::cache_hierarchy.l1dcaches.prefetcher 74000.047619                       # average overall mshr miss latency ((Tick/Count))
board.cache_hierarchy.llcache.demandAvgMshrMissLatency::processor.switch.core.data 76496.575342                       # average overall mshr miss latency ((Tick/Count))
board.cache_hierarchy.llcache.demandAvgMshrMissLatency::total 74039.231993                       # average overall mshr miss latency ((Tick/Count))
board.cache_hierarchy.llcache.overallAvgMshrMissLatency::cache_hierarchy.l1dcaches.prefetcher 74000.047619                       # average overall mshr miss latency ((Tick/Count))
board.cache_hierarchy.llcache.overallAvgMshrMissLatency::processor.switch.core.data 76496.575342                       # average overall mshr miss latency ((Tick/Count))
board.cache_hierarchy.llcache.overallAvgMshrMissLatency::total 74039.231993                       # average overall mshr miss latency ((Tick/Count))
board.cache_hierarchy.llcache.replacements            0                       # number of replacements (Count)
board.cache_hierarchy.llcache.ReadExReq.misses::processor.switch.core.data           73                       # number of ReadExReq misses (Count)
board.cache_hierarchy.llcache.ReadExReq.misses::total           73                       # number of ReadExReq misses (Count)
board.cache_hierarchy.llcache.ReadExReq.missLatency::processor.switch.core.data      5602500                       # number of ReadExReq miss ticks (Tick)
board.cache_hierarchy.llcache.ReadExReq.missLatency::total      5602500                       # number of ReadExReq miss ticks (Tick)
board.cache_hierarchy.llcache.ReadExReq.accesses::processor.switch.core.data           73                       # number of ReadExReq accesses(hits+misses) (Count)
board.cache_hierarchy.llcache.ReadExReq.accesses::total           73                       # number of ReadExReq accesses(hits+misses) (Count)
board.cache_hierarchy.llcache.ReadExReq.missRate::processor.switch.core.data            1                       # miss rate for ReadExReq accesses (Ratio)
board.cache_hierarchy.llcache.ReadExReq.missRate::total            1                       # miss rate for ReadExReq accesses (Ratio)
board.cache_hierarchy.llcache.ReadExReq.avgMissLatency::processor.switch.core.data 76746.575342                       # average ReadExReq miss latency ((Tick/Count))
board.cache_hierarchy.llcache.ReadExReq.avgMissLatency::total 76746.575342                       # average ReadExReq miss latency ((Tick/Count))
board.cache_hierarchy.llcache.ReadExReq.mshrMisses::processor.switch.core.data           73                       # number of ReadExReq MSHR misses (Count)
board.cache_hierarchy.llcache.ReadExReq.mshrMisses::total           73                       # number of ReadExReq MSHR misses (Count)
board.cache_hierarchy.llcache.ReadExReq.mshrMissLatency::processor.switch.core.data      5584250                       # number of ReadExReq MSHR miss ticks (Tick)
board.cache_hierarchy.llcache.ReadExReq.mshrMissLatency::total      5584250                       # number of ReadExReq MSHR miss ticks (Tick)
board.cache_hierarchy.llcache.ReadExReq.mshrMissRate::processor.switch.core.data            1                       # mshr miss rate for ReadExReq accesses (Ratio)
board.cache_hierarchy.llcache.ReadExReq.mshrMissRate::total            1                       # mshr miss rate for ReadExReq accesses (Ratio)
board.cache_hierarchy.llcache.ReadExReq.avgMshrMissLatency::processor.switch.core.data 76496.575342                       # average ReadExReq mshr miss latency ((Tick/Count))
board.cache_hierarchy.llcache.ReadExReq.avgMshrMissLatency::total 76496.575342                       # average ReadExReq mshr miss latency ((Tick/Count))
board.cache_hierarchy.llcache.ReadSharedReq.misses::cache_hierarchy.l1dcaches.prefetcher         4578                       # number of ReadSharedReq misses (Count)
board.cache_hierarchy.llcache.ReadSharedReq.misses::total         4578                       # number of ReadSharedReq misses (Count)
board.cache_hierarchy.llcache.ReadSharedReq.missLatency::cache_hierarchy.l1dcaches.prefetcher    339916718                       # number of ReadSharedReq miss ticks (Tick)
board.cache_hierarchy.llcache.ReadSharedReq.missLatency::total    339916718                       # number of ReadSharedReq miss ticks (Tick)
board.cache_hierarchy.llcache.ReadSharedReq.accesses::cache_hierarchy.l1dcaches.prefetcher         4578                       # number of ReadSharedReq accesses(hits+misses) (Count)
board.cache_hierarchy.llcache.ReadSharedReq.accesses::total         4578                       # number of ReadSharedReq accesses(hits+misses) (Count)
board.cache_hierarchy.llcache.ReadSharedReq.missRate::cache_hierarchy.l1dcaches.prefetcher            1                       # miss rate for ReadSharedReq accesses (Ratio)
board.cache_hierarchy.llcache.ReadSharedReq.missRate::total            1                       # miss rate for ReadSharedReq accesses (Ratio)
board.cache_hierarchy.llcache.ReadSharedReq.avgMissLatency::cache_hierarchy.l1dcaches.prefetcher 74250.047619                       # average ReadSharedReq miss latency ((Tick/Count))
board.cache_hierarchy.llcache.ReadSharedReq.avgMissLatency::total 74250.047619                       # average ReadSharedReq miss latency ((Tick/Count))
board.cache_hierarchy.llcache.ReadSharedReq.mshrMisses::cache_hierarchy.l1dcaches.prefetcher         4578                       # number of ReadSharedReq MSHR misses (Count)
board.cache_hierarchy.llcache.ReadSharedReq.mshrMisses::total         4578                       # number of ReadSharedReq MSHR misses (Count)
board.cache_hierarchy.llcache.ReadSharedReq.mshrMissLatency::cache_hierarchy.l1dcaches.prefetcher    338772218                       # number of ReadSharedReq MSHR miss ticks (Tick)
board.cache_hierarchy.llcache.ReadSharedReq.mshrMissLatency::total    338772218                       # number of ReadSharedReq MSHR miss ticks (Tick)
board.cache_hierarchy.llcache.ReadSharedReq.mshrMissRate::cache_hierarchy.l1dcaches.prefetcher            1                       # mshr miss rate for ReadSharedReq accesses (Ratio)
board.cache_hierarchy.llcache.ReadSharedReq.mshrMissRate::total            1                       # mshr miss rate for ReadSharedReq accesses (Ratio)
board.cache_hierarchy.llcache.ReadSharedReq.avgMshrMissLatency::cache_hierarchy.l1dcaches.prefetcher 74000.047619                       # average ReadSharedReq mshr miss latency ((Tick/Count))
board.cache_hierarchy.llcache.ReadSharedReq.avgMshrMissLatency::total 74000.047619                       # average ReadSharedReq mshr miss latency ((Tick/Count))
board.cache_hierarchy.llcache.power_state.pwrStateResidencyTicks::UNDEFINED  21639125500                       # Cumulative time (in ticks) in various power states (Tick)
board.cache_hierarchy.llcache.tags.tagsInUse  5039.324695                       # Average ticks per tags in use ((Tick/Count))
board.cache_hierarchy.llcache.tags.totalRefs            0                       # Total number of references to valid blocks. (Count)
board.cache_hierarchy.llcache.tags.sampledRefs            0                       # Sample count of references to valid blocks. (Count)
board.cache_hierarchy.llcache.tags.avgRefs          nan                       # Average number of references to valid blocks. ((Count/Count))
board.cache_hierarchy.llcache.tags.warmupTick            0                       # The tick when the warmup percentage was hit. (Tick)
board.cache_hierarchy.llcache.tags.occupancies::cache_hierarchy.l1dcaches.prefetcher  4806.155832                       # Average occupied blocks per tick, per requestor ((Count/Tick))
board.cache_hierarchy.llcache.tags.occupancies::processor.switch.core.inst           95                       # Average occupied blocks per tick, per requestor ((Count/Tick))
board.cache_hierarchy.llcache.tags.occupancies::processor.switch.core.data   138.168863                       # Average occupied blocks per tick, per requestor ((Count/Tick))
board.cache_hierarchy.llcache.tags.avgOccs::cache_hierarchy.l1dcaches.prefetcher     0.036668                       # Average percentage of cache occupancy ((Ratio/Tick))
board.cache_hierarchy.llcache.tags.avgOccs::processor.switch.core.inst     0.000725                       # Average percentage of cache occupancy ((Ratio/Tick))
board.cache_hierarchy.llcache.tags.avgOccs::processor.switch.core.data     0.001054                       # Average percentage of cache occupancy ((Ratio/Tick))
board.cache_hierarchy.llcache.tags.avgOccs::total     0.038447                       # Average percentage of cache occupancy ((Ratio/Tick))
board.cache_hierarchy.llcache.tags.occupanciesTaskId::1022         7095                       # Occupied blocks per task id (Count)
board.cache_hierarchy.llcache.tags.occupanciesTaskId::1024          270                       # Occupied blocks per task id (Count)
board.cache_hierarchy.llcache.tags.ageTaskId_1022::0            3                       # Occupied blocks per task id, per block age (Count)
board.cache_hierarchy.llcache.tags.ageTaskId_1022::1           17                       # Occupied blocks per task id, per block age (Count)
board.cache_hierarchy.llcache.tags.ageTaskId_1022::2          192                       # Occupied blocks per task id, per block age (Count)
board.cache_hierarchy.llcache.tags.ageTaskId_1022::3         1903                       # Occupied blocks per task id, per block age (Count)
board.cache_hierarchy.llcache.tags.ageTaskId_1022::4         4980                       # Occupied blocks per task id, per block age (Count)
board.cache_hierarchy.llcache.tags.ageTaskId_1024::0            1                       # Occupied blocks per task id, per block age (Count)
board.cache_hierarchy.llcache.tags.ageTaskId_1024::2            3                       # Occupied blocks per task id, per block age (Count)
[...]
board.processor.switch.core.executeStats0.instRate     1.193771                       # Inst execution rate ((Count/Cycle))
board.processor.switch.core.executeStats0.numCCRegReads     67517195                       # Number of times the CC registers were read (Count)
board.processor.switch.core.executeStats0.numCCRegWrites     33649596                       # Number of times the CC registers were written (Count)
board.processor.switch.core.executeStats0.numFpRegWrites            0                       # Number of times the floating registers were written (Count)
board.processor.switch.core.executeStats0.numIntAluAccesses    101735906                       # Number of integer alu accesses (Count)
board.processor.switch.core.executeStats0.numIntRegReads    128534890                       # Number of times the integer registers were read (Count)
board.processor.switch.core.executeStats0.numIntRegWrites     78685840                       # Number of times the integer registers were written (Count)
board.processor.switch.core.executeStats0.numMemRefs     24449915                       # Number of memory refs (Count)
board.processor.switch.core.executeStats0.numMiscRegReads     47487693                       # Number of times the Misc registers were read (Count)
board.processor.switch.core.executeStats0.numVecAluAccesses            0                       # Number of vector alu accesses (Count)
board.processor.switch.core.executeStats0.numDiscardedOps            0                       # Number of ops (including micro ops) which were discarded before commit (Count)
board.processor.switch.core.fetch.status::running     35850167     41.41%     41.41% # Number of cycles fetch has run and was not squashing or blocked (Cycle)
board.processor.switch.core.fetch.status::squashing        70008      0.08%     41.49% # Number of cycles fetch has spent squashing (Cycle)
board.processor.switch.core.fetch.status::trapPending         1960      0.00%     41.50% # Number of cycles fetch is waiting for a trap to be processed (Cycle)
board.processor.switch.core.fetch.status::icacheWaitResponse     50644875     58.50%    100.00% # Number of cycles fetch is waiting for the Icache to respond (Cycle)
board.processor.switch.core.fetch.predictedBranches      6241681                       # Number of branches that fetch has predicted taken (Count)
board.processor.switch.core.fetch.cacheLines     16878771                       # Number of cache lines fetched (Count)
board.processor.switch.core.fetch.icacheSquashes        13146                       # Number of outstanding Icache misses that were squashed (Count)
board.processor.switch.core.fetch.nisnDist::samples     86532006                       # Number of instructions fetched each cycle (Total) (Count)
board.processor.switch.core.fetch.nisnDist::mean     1.199866                       # Number of instructions fetched each cycle (Total) (Count)
board.processor.switch.core.fetch.nisnDist::stdev     1.686012                       # Number of instructions fetched each cycle (Total) (Count)
board.processor.switch.core.fetch.nisnDist::underflows            0      0.00%      0.00% # Number of instructions fetched each cycle (Total) (Count)
board.processor.switch.core.fetch.nisnDist::0     52770489     60.98%     60.98% # Number of instructions fetched each cycle (Total) (Count)
board.processor.switch.core.fetch.nisnDist::1      6620842      7.65%     68.64% # Number of instructions fetched each cycle (Total) (Count)
board.processor.switch.core.fetch.nisnDist::2      4591321      5.31%     73.94% # Number of instructions fetched each cycle (Total) (Count)
board.processor.switch.core.fetch.nisnDist::3      2174048      2.51%     76.45% # Number of instructions fetched each cycle (Total) (Count)
board.processor.switch.core.fetch.nisnDist::4     20375306     23.55%    100.00% # Number of instructions fetched each cycle (Total) (Count)
board.processor.switch.core.fetch.nisnDist::overflows            0      0.00%    100.00% # Number of instructions fetched each cycle (Total) (Count)
board.processor.switch.core.fetch.nisnDist::min_value            0                       # Number of instructions fetched each cycle (Total) (Count)
board.processor.switch.core.fetch.nisnDist::max_value            4                       # Number of instructions fetched each cycle (Total) (Count)
board.processor.switch.core.fetch.nisnDist::total     86532006                       # Number of instructions fetched each cycle (Total) (Count)
board.processor.switch.core.fetch.ftNumber::samples     35850167                       # Number of fetch targets processed each cycle (Total) (Count)
board.processor.switch.core.fetch.ftNumber::mean            0                       # Number of fetch targets processed each cycle (Total) (Count)
board.processor.switch.core.fetch.ftNumber::stdev            0                       # Number of fetch targets processed each cycle (Total) (Count)
board.processor.switch.core.fetch.ftNumber::underflows            0      0.00%      0.00% # Number of fetch targets processed each cycle (Total) (Count)
board.processor.switch.core.fetch.ftNumber::0     35850167    100.00%    100.00% # Number of fetch targets processed each cycle (Total) (Count)
board.processor.switch.core.fetch.ftNumber::1            0      0.00%    100.00% # Number of fetch targets processed each cycle (Total) (Count)
board.processor.switch.core.fetch.ftNumber::2            0      0.00%    100.00% # Number of fetch targets processed each cycle (Total) (Count)
board.processor.switch.core.fetch.ftNumber::3            0      0.00%    100.00% # Number of fetch targets processed each cycle (Total) (Count)
board.processor.switch.core.fetch.ftNumber::4            0      0.00%    100.00% # Number of fetch targets processed each cycle (Total) (Count)
board.processor.switch.core.fetch.ftNumber::overflows            0      0.00%    100.00% # Number of fetch targets processed each cycle (Total) (Count)
board.processor.switch.core.fetch.ftNumber::min_value            0                       # Number of fetch targets processed each cycle (Total) (Count)
board.processor.switch.core.fetch.ftNumber::max_value            0                       # Number of fetch targets processed each cycle (Total) (Count)
board.processor.switch.core.fetch.ftNumber::total     35850167                       # Number of fetch targets processed each cycle (Total) (Count)
board.processor.switch.core.fetchStats0.numInsts     52808008                       # Number of instructions fetched (thread level) (Count)
board.processor.switch.core.fetchStats0.numOps            0                       # Number of ops (including micro ops) fetched (thread level) (Count)
board.processor.switch.core.fetchStats0.fetchRate     0.610271                       # Number of inst fetches per cycle ((Count/Cycle))
board.processor.switch.core.fetchStats0.numBranches     12379069                       # Number of branches fetched (Count)
board.processor.switch.core.fetchStats0.branchRate     0.143058                       # Number of branch fetches per cycle (Ratio)
board.processor.switch.core.fetchStats0.icacheStallCycles     50644875                       # ICache total stall cycles (Cycle)
board.processor.switch.core.fetchStats0.numFetchSuspends            0                       # Number of times Execute suspended instruction fetching (Count)
board.processor.switch.core.ftq.inserts             0                       # The number of FTQ insertions (Count)
board.processor.switch.core.ftq.removals            0                       # The number of FTQ removals. Not including squashes (Count)
board.processor.switch.core.ftq.squashes            0                       # The number of FTQ squashes (Count)
board.processor.switch.core.ftq.locks               0                       # The number of times the FTQ got locked. (Count)
board.processor.switch.core.ftq.occupancy::samples            0                       # Distribution of the FTQ occupation. (Count)
board.processor.switch.core.ftq.occupancy::mean          nan                       # Distribution of the FTQ occupation. (Count)
board.processor.switch.core.ftq.occupancy::stdev          nan                       # Distribution of the FTQ occupation. (Count)
board.processor.switch.core.ftq.occupancy::underflows            0                       # Distribution of the FTQ occupation. (Count)
board.processor.switch.core.ftq.occupancy::0-3            0                       # Distribution of the FTQ occupation. (Count)
board.processor.switch.core.ftq.occupancy::4-7            0                       # Distribution of the FTQ occupation. (Count)
board.processor.switch.core.ftq.occupancy::8            0                       # Distribution of the FTQ occupation. (Count)
board.processor.switch.core.ftq.occupancy::overflows            0                       # Distribution of the FTQ occupation. (Count)
board.processor.switch.core.ftq.occupancy::min_value            0                       # Distribution of the FTQ occupation. (Count)
board.processor.switch.core.ftq.occupancy::max_value            0                       # Distribution of the FTQ occupation. (Count)
board.processor.switch.core.ftq.occupancy::total            0                       # Distribution of the FTQ occupation. (Count)
board.processor.switch.core.iew.dispatchStatus::running     86439694     99.89%     99.89% # Number of cycles dispatch is running (Cycle)
board.processor.switch.core.iew.dispatchStatus::blocked        57308      0.07%     99.96% # Number of cycles dispatch is blocked (Cycle)
board.processor.switch.core.iew.dispatchStatus::squashing        35004      0.04%    100.00% # Number of cycles dispatch is squashing (Cycle)
board.processor.switch.core.iew.dispatchedInsts    103343521                       # Number of instructions dispatched to IQ (Count)
board.processor.switch.core.iew.dispSquashedInsts       235581                       # Number of squashed instructions skipped by dispatch (Count)
board.processor.switch.core.iew.dispLoadInsts     17997498                       # Number of dispatched load instructions (Count)
board.processor.switch.core.iew.dispStoreInsts      6474220                       # Number of dispatched store instructions (Count)
board.processor.switch.core.iew.dispNonSpecInsts            0                       # Number of dispatched non-speculative instructions (Count)
board.processor.switch.core.iew.iqFullEvents            0                       # Number of times the IQ has become full, causing a stall (Count)
board.processor.switch.core.iew.lsqFullEvents            0                       # Number of times the LSQ has become full, causing a stall (Count)
board.processor.switch.core.iew.memOrderViolationEvents            1                       # Number of memory order violations (Count)
board.processor.switch.core.iew.predictedTakenIncorrect        21790                       # Number of branches that were predicted taken incorrectly (Count)
board.processor.switch.core.iew.predictedNotTakenIncorrect        13073                       # Number of branches that were predicted not taken incorrectly (Count)
board.processor.switch.core.iew.branchMispredicts        34863                       # Number of branch mispredicts detected at execute (Count)
board.processor.switch.core.iew.instsToCommit    103264615                       # Cumulative count of insts sent to commit (Count)
board.processor.switch.core.iew.writebackCount    103264402                       # Cumulative count of insts written-back (Count)
board.processor.switch.core.iew.producerInst     71606143                       # Number of instructions producing a value (Count)
board.processor.switch.core.iew.consumerInst    109166801                       # Number of instructions consuming a value (Count)
board.processor.switch.core.iew.wbRate       1.193367                       # Insts written-back per cycle ((Count/Cycle))
board.processor.switch.core.iew.wbFanout     0.655933                       # Average fanout of values written-back ((Count/Count))
board.processor.switch.core.lsq0.forwLoads      1035016                       # Number of loads that had data forwarded from stores (Count)
board.processor.switch.core.lsq0.squashedLoads        70399                       # Number of loads squashed (Count)
board.processor.switch.core.lsq0.ignoredResponses            1                       # Number of memory responses ignored because the instruction is squashed (Count)
board.processor.switch.core.lsq0.memOrderViolation            1                       # Number of memory ordering violations (Count)
board.processor.switch.core.lsq0.squashedStores          598                       # Number of stores squashed (Count)
board.processor.switch.core.lsq0.rescheduledLoads            0                       # Number of loads that were rescheduled (Count)
board.processor.switch.core.lsq0.blockedByCache            0                       # Number of times an access to memory failed due to the cache being blocked (Count)
board.processor.switch.core.lsq0.loadToUse::samples     17927099                       # Distribution of cycle latency between the first time a load is issued and its completion (Cycle)
board.processor.switch.core.lsq0.loadToUse::mean     4.962111                       # Distribution of cycle latency between the first time a load is issued and its completion (Cycle)
board.processor.switch.core.lsq0.loadToUse::stdev     0.808388                       # Distribution of cycle latency between the first time a load is issued and its completion (Cycle)
board.processor.switch.core.lsq0.loadToUse::0-9     17927099    100.00%    100.00% # Distribution of cycle latency between the first time a load is issued and its completion (Cycle)
board.processor.switch.core.lsq0.loadToUse::min_value            2                       # Distribution of cycle latency between the first time a load is issued and its completion (Cycle)
board.processor.switch.core.lsq0.loadToUse::max_value            6                       # Distribution of cycle latency between the first time a load is issued and its completion (Cycle)
board.processor.switch.core.lsq0.loadToUse::total     17927099                       # Distribution of cycle latency between the first time a load is issued and its completion (Cycle)
board.processor.switch.core.lsq0.addedLoadsAndStores     24471718                       # Number of loads and stores written to the Load Store Queue (Count)
board.processor.switch.core.lsq0.lqAvgOccupancy         0.04                       # Average LQ Occupancy (UsedSlots/TotalSlots) (Ratio)
board.processor.switch.core.lsq0.sqAvgOccupancy         0.03                       # Average SQ Occupancy (UsedSlots/TotalSlots) (Ratio)
board.processor.switch.core.mmu.dtb.rdAccesses     17975696                       # TLB accesses on read requests (Count)
board.processor.switch.core.mmu.dtb.wrAccesses      6474219                       # TLB accesses on write requests (Count)
board.processor.switch.core.mmu.dtb.exAccesses            0                       # TLB accesses on execute (instr) requests (Count)
board.processor.switch.core.mmu.dtb.rdMisses            0                       # TLB misses on read requests (Count)
board.processor.switch.core.mmu.dtb.wrMisses          219                       # TLB misses on write requests (Count)
board.processor.switch.core.mmu.dtb.exMisses            0                       # TLB misses on execute (instr) requests (Count)
board.processor.switch.core.mmu.dtb.walker.power_state.pwrStateResidencyTicks::UNDEFINED  21633001500                       # Cumulative time (in ticks) in various power states (Tick)
board.processor.switch.core.mmu.itb.rdAccesses            0                       # TLB accesses on read requests (Count)
board.processor.switch.core.mmu.itb.wrAccesses            0                       # TLB accesses on write requests (Count)
board.processor.switch.core.mmu.itb.exAccesses     16878771                       # TLB accesses on execute (instr) requests (Count)
board.processor.switch.core.mmu.itb.rdMisses            0                       # TLB misses on read requests (Count)
board.processor.switch.core.mmu.itb.wrMisses            0                       # TLB misses on write requests (Count)
board.processor.switch.core.mmu.itb.exMisses            0                       # TLB misses on execute (instr) requests (Count)
board.processor.switch.core.mmu.itb.walker.power_state.pwrStateResidencyTicks::UNDEFINED  21633001500                       # Cumulative time (in ticks) in various power states (Tick)
board.processor.switch.core.power_state.pwrStateResidencyTicks::OFF  21633001500                       # Cumulative time (in ticks) in various power states (Tick)
board.processor.switch.core.rename.status::Running     33700652     38.95%     38.95% # Number of cycles rename is running (Cycle)
board.processor.switch.core.rename.status::Idle     52736734     60.94%     99.89% # Number of cycles rename is idle (Cycle)
board.processor.switch.core.rename.status::Squashing        35004      0.04%     99.93% # Number of cycles rename is squashing (Cycle)
board.processor.switch.core.rename.status::Blocked        57308      0.07%    100.00% # Number of cycles rename is blocking (Cycle)
board.processor.switch.core.rename.status::Unblocking         2308      0.00%    100.00% # Number of cycles rename is unblocking (Cycle)
board.processor.switch.core.rename.renamedInsts    103644348                       # Number of instructions processed by rename (Count)
board.processor.switch.core.rename.SQFullEvents         2308                       # Number of times rename has blocked due to SQ full (Count)
board.processor.switch.core.rename.renamedOperands    172914472                       # Number of destination operands rename has renamed (Count)
board.processor.switch.core.rename.lookups    363957235                       # Number of register rename lookups that rename has made (Count)
board.processor.switch.core.rename.intLookups    128901839                       # Number of integer rename lookups (Count)
board.processor.switch.core.rename.committedMaps    171786232                       # Number of HB maps that are committed (Count)
board.processor.switch.core.rename.undoneMaps      1128211                       # Number of HB maps that are undone due to squashing (Count)
board.processor.switch.core.rename.serializing            0                       # count of serializing insts renamed (Count)
board.processor.switch.core.rename.tempSerializing            0                       # count of temporary serializing insts renamed (Count)
board.processor.switch.core.rename.skidInsts           12                       # count of insts added to the skid buffer (Count)
board.processor.switch.core.rename.intReturned     78529196                       # count of registers freed and written back to integer free list (Count)
board.processor.switch.core.rob.reads       189224774                       # The number of ROB reads (Count)
board.processor.switch.core.rob.writes      207378547                       # The number of ROB writes (Count)
board.processor.switch.core.thread_0.numInsts     52425904                       # Number of Instructions committed (Count)
board.processor.switch.core.thread_0.numOps    103058527                       # Number of Ops committed (Count)
board.processor.switch.core.thread_0.numMemRefs     24400719                       # Number of Memory References (Count)
board.workload.inst.arm                             0                       # number of arm instructions executed (Count)
board.workload.inst.quiesce                         0                       # number of quiesce instructions executed (Count)

---------- End Simulation Statistics   ----------
