gem5 Simulator System.  https://www.gem5.org
gem5 is copyrighted software; use the --copyright option for details.

gem5 version 25.1.0.0
gem5 compiled Mar 10 2026 18:36:06
gem5 started Mar 10 2026 20:15:14
gem5 executing on pedagogical-1, pid 4023464
command line: build/X86/gem5.opt --outdir out_dir/ -re -- gem5-configs-395t/se_perceptron.py --input-bin=/scratch/cluster/speedway/cs395t/hw2/part1/bin/matmul_small

Creating SkylakeCPU object: bpred=BranchPredictor
Creating X86 Processor: num_cores=1, core_type=CPUTypes.O3
Creating ThreeLevelClassicHierarchy
***Beginning simulation!
Creating L1DCache object: size=32768, assoc=8, pref=StridePrefetcher, repl=LRURP
Creating L1ICache object: size=32768, assoc=8, pref=<class 'm5.params.null_params.NullSimObject'>, repl=LRURP
Creating L2Cache object: size=1048576, assoc=16, pref=<class 'm5.params.null_params.NullSimObject'>, repl=LRURP
Creating MMUCache object
Creating MMUCache object
Creating LLCache object: size=8388608, assoc=16, pref=<class 'm5.params.null_params.NullSimObject'>, repl=LRURP
Global frequency set at 1000000000000 ticks per second
***Tick 40,847,301,750: Simulator exited because exiting with last active thread context.
***Total wall clock time: 9.92 min
